bar01.oofem.out
Serial test of explicit oofem computation
#
NlDEIDynamic nsteps 3 dumpcoef 0.0 deltaT 1.0
domain 2dTruss
#
OutputManager tstep_all dofman_all element_all
ndofman 3 nelem 2 ncrosssect 1 nmat 1 nbc 3 nic 0 nltf 1 nset 4
#
Node 1 coords 3 0. 0. 0.
Node 2 coords 3 0. 0. 2.
Node 3 coords 3 0. 0. 4.
Truss2d 1 nodes 2 1 2
Truss2d 2 nodes 2 2 3
Set 1 elementranges {(1 2)}
Set 2 nodes 2 1 2
Set 3 nodes 1 2
Set 4 nodes 1 3
SimpleCS 1 thick 0.1 width 10.0 material 1 set 1
IsoLE 1 tAlpha 0.000012  d 10.0  E 1.0  n 0.2
BoundaryCondition 1 loadTimeFunction 1 dofs 1 1 values 1 0.0 set 2
BoundaryCondition 2 loadTimeFunction 1 dofs 1 3 values 1 0.0 set 3
NodalLoad 3 loadTimeFunction 1 dofs 2 1 3 Components 2 0. 1.0 set 4
ConstantFunction 1 f(t) 1.0

#%BEGIN_CHECK% tolerance 1.e-8
#NODE tStep 3 number 1 dof 2 unknown v value 0.0
#NODE tStep 3 number 2 dof 2 unknown v value 1.25e-3
#NODE tStep 3 number 3 dof 2 unknown v value 1.475e-1
#NODE tStep 3 number 3 dof 2 unknown a value 9.5e-2
##
#ELEMENT tStep 3 number 2 gp 1 keyword 1 component 1  value 5.e-2
#%END_CHECK%
