xfem01.out
Xfem test of circular inclusion in a structured plane stress square grid
LinearStatic nsteps 1 nmodules 1
errorcheck
#vtkxml tstep_all domain_all vars 1 94 primvars 1 1 cellvars 2 1 4
#vtkxml tstep_all domain_all primvars 1 1 cellvars 1 1
domain 2dPlaneStress
OutputManager tstep_all dofman_all element_all
ndofman 441 nelem 400 ncrosssect 2 nmat 2 nbc 3 nic 0 nltf 1 nxfemman 1 nset 5
Node 1 coords 2 0.0 0.0
Node 2 coords 2 3.0 0.0
Node 3 coords 2 6.0 0.0
Node 4 coords 2 9.0 0.0
Node 5 coords 2 12.0 0.0
Node 6 coords 2 15.0 0.0
Node 7 coords 2 18.0 0.0
Node 8 coords 2 21.0 0.0
Node 9 coords 2 24.0 0.0
Node 10 coords 2 27.0 0.0
Node 11 coords 2 30.0 0.0
Node 12 coords 2 33.0 0.0
Node 13 coords 2 36.0 0.0
Node 14 coords 2 39.0 0.0
Node 15 coords 2 42.0 0.0
Node 16 coords 2 45.0 0.0
Node 17 coords 2 48.0 0.0
Node 18 coords 2 51.0 0.0
Node 19 coords 2 54.0 0.0
Node 20 coords 2 57.0 0.0
# ... 421 like lines cut
PlaneStress2dXfem 1 nodes 4 1 2 23 22
PlaneStress2dXfem 2 nodes 4 2 3 24 23
PlaneStress2dXfem 3 nodes 4 3 4 25 24
PlaneStress2dXfem 4 nodes 4 4 5 26 25
PlaneStress2dXfem 5 nodes 4 5 6 27 26
PlaneStress2dXfem 6 nodes 4 6 7 28 27
PlaneStress2dXfem 7 nodes 4 7 8 29 28
PlaneStress2dXfem 8 nodes 4 8 9 30 29
PlaneStress2dXfem 9 nodes 4 9 10 31 30
PlaneStress2dXfem 10 nodes 4 10 11 32 31
PlaneStress2dXfem 11 nodes 4 11 12 33 32
PlaneStress2dXfem 12 nodes 4 12 13 34 33
PlaneStress2dXfem 13 nodes 4 13 14 35 34
PlaneStress2dXfem 14 nodes 4 14 15 36 35
PlaneStress2dXfem 15 nodes 4 15 16 37 36
PlaneStress2dXfem 16 nodes 4 16 17 38 37
PlaneStress2dXfem 17 nodes 4 17 18 39 38
PlaneStress2dXfem 18 nodes 4 18 19 40 39
PlaneStress2dXfem 19 nodes 4 19 20 41 40
PlaneStress2dXfem 20 nodes 4 20 21 42 41
# ... 380 like lines cut
SimpleCS 1 thick 1.0 material 1 set 1
SimpleCS 2 thick 1.0 material 2 set 2
IsoLE 1 tAlpha 1.2e-05 d 1 E 30000.0 n 0.3
IsoLE 2 tAlpha 1.2e-05 d 1 E 0.1 n 0.3
BoundaryCondition 1 loadTimeFunction 1 dofs 1 1 values 1 0. set 3
BoundaryCondition 2 loadTimeFunction 1 dofs 1 2 values 1 0. set 4
BoundaryCondition 3 loadTimeFunction 1 dofs 1 2 values 1 0.01 set 5
ConstantFunction 1 f(t) 1.0
Set 1 elementranges {(1 129) (132 148) (153 167) (174 186) (195 206) (215 227) (234 248) (253 269) (272 400)}
Set 2 elementranges {130 131 (149 152) (168 173) (187 194) (207 214) (228 233) (249 252) 270 271}
Set 3 nodes 1 1
Set 4 noderanges {(1 21)}
Set 5 noderanges {(421 441)}
XfemManager 1 numberofenrichmentitems 1 
Inclusion 1 enrichmentdomains 1 1 enrichmentfunction 1 enrichmentdomain 1 enrichmentfront 1 crosssection 2
RampFunction 1
Circle 1 center 2 30.0 30.0 radius 12.5
EnrFrontExtend 1
EnrFrontExtend 1
#%BEGIN_CHECK% tolerance 1.e-3
##NODE tStep 1 number 304 dof 1 unknown d value -3.78917387e-03
#NODE tStep 1 number 304 dof 2 unknown d value  9.53932214e-03
##NODE tStep 1 number 306 dof 1 unknown d value -4.43097051e-03
#NODE tStep 1 number 306 dof 2 unknown d value  9.53932214e-03
##NODE tStep 1 number 217 dof 1 unknown d value -2.33292464e-03
#NODE tStep 1 number 217 dof 2 unknown d value  5.00000000e-03
##NODE tStep 1 number 225 dof 1 unknown d value -5.88721974e-03
#NODE tStep 1 number 225 dof 2 unknown d value  5.00000000e-03
#### element 289
#ELEMENT tStep 1 number 289 irule 0 gp 1 keyword 4 component 1  value -3.8526e-05
#ELEMENT tStep 1 number 289 irule 0 gp 1 keyword 4 component 2  value 1.2040e-05
##ELEMENT tStep 1 number 289 irule 0 gp 1 keyword 1 component 1  value -1.1510e+00
##ELEMENT tStep 1 number 289 irule 0 gp 1 keyword 1 component 2  value 1.5898e-02
#ELEMENT tStep 1 number 289 irule 0 gp 2 keyword 4 component 1  value -4.6993e-05
#ELEMENT tStep 1 number 289 irule 0 gp 2 keyword 4 component 2  value 1.6536e-05
##ELEMENT tStep 1 number 289 irule 0 gp 2 keyword 1 component 1  value -1.3857e+00
##ELEMENT tStep 1 number 289 irule 0 gp 2 keyword 1 component 2  value 8.0364e-02
#ELEMENT tStep 1 number 289 irule 0 gp 3 keyword 4 component 1  value -4.6940e-05
#ELEMENT tStep 1 number 289 irule 0 gp 3 keyword 4 component 2  value 1.5550e-05
##ELEMENT tStep 1 number 289 irule 0 gp 3 keyword 1 component 1  value -1.3937e+00
##ELEMENT tStep 1 number 289 irule 0 gp 3 keyword 1 component 2  value 4.8380e-02
#####
#ELEMENT tStep 1 number 289 irule 0 gp 4 keyword 4 component 1  value -4.4750e-05
#ELEMENT tStep 1 number 289 irule 0 gp 4 keyword 4 component 2  value 2.7014e-05
##ELEMENT tStep 1 number 289 irule 0 gp 4 keyword 1 component 1  value -1.2081e+00
##ELEMENT tStep 1 number 289 irule 0 gp 4 keyword 1 component 2  value 4.4799e-01
#ELEMENT tStep 1 number 289 irule 0 gp 5 keyword 4 component 1  value -4.6055e-05
#ELEMENT tStep 1 number 289 irule 0 gp 5 keyword 4 component 2  value 2.0509e-05
##ELEMENT tStep 1 number 289 irule 1 gp 2 keyword 1 component 1  value -1.3155e+00
##ELEMENT tStep 1 number 289 irule 1 gp 2 keyword 1 component 2  value 2.2065e-01
#ELEMENT tStep 1 number 289 irule 0 gp 6 keyword 4 component 1  value -3.5116e-05
#ELEMENT tStep 1 number 289 irule 0 gp 6 keyword 4 component 2  value 3.2514e-05
##ELEMENT tStep 1 number 289 irule 1 gp 3 keyword 1 component 1  value -8.3611e-01
##ELEMENT tStep 1 number 289 irule 1 gp 3 keyword 1 component 2  value 7.2460e-01
#####
#ELEMENT tStep 1 number 289 irule 0 gp 7 keyword 4 component 1  value -3.1936e-05
#ELEMENT tStep 1 number 289 irule 0 gp 7 keyword 4 component 2  value 2.9196e-05
##ELEMENT tStep 1 number 289 irule 2 gp 1 keyword 1 component 1  value -7.6409e-01
##ELEMENT tStep 1 number 289 irule 2 gp 1 keyword 1 component 2  value 6.4667e-01
#ELEMENT tStep 1 number 289 irule 0 gp 8 keyword 4 component 1  value -4.3975e-05
#ELEMENT tStep 1 number 289 irule 0 gp 8 keyword 4 component 2  value 1.8130e-05
##ELEMENT tStep 1 number 289 irule 2 gp 2 keyword 1 component 1  value -1.2704e+00
##ELEMENT tStep 1 number 289 irule 2 gp 2 keyword 1 component 2  value 1.6277e-01
#ELEMENT tStep 1 number 289 irule 0 gp 9 keyword 4 component 1  value -3.4235e-05
#ELEMENT tStep 1 number 289 irule 0 gp 9 keyword 4 component 2  value 1.5110e-05
##ELEMENT tStep 1 number 289 irule 2 gp 3 keyword 1 component 1  value -9.7918e-01
##ELEMENT tStep 1 number 289 irule 2 gp 3 keyword 1 component 2  value 1.5954e-01
#### element 292
#ELEMENT tStep 1 number 292 irule 0 gp 6 keyword 4 component 1  value -3.8526e-05
#ELEMENT tStep 1 number 292 irule 0 gp 6 keyword 4 component 2  value 1.2040e-05
##ELEMENT tStep 1 number 292 irule 1 gp 3 keyword 1 component 1  value -1.1510e+00
##ELEMENT tStep 1 number 292 irule 1 gp 3 keyword 1 component 2  value 1.5898e-02
#ELEMENT tStep 1 number 292 irule 0 gp 5 keyword 4 component 1  value -4.6993e-05
#ELEMENT tStep 1 number 292 irule 0 gp 5 keyword 4 component 2  value 1.6536e-05
##ELEMENT tStep 1 number 292 irule 1 gp 2 keyword 1 component 1  value -1.3857e+00
##ELEMENT tStep 1 number 292 irule 1 gp 2 keyword 1 component 2  value 8.0364e-02
#ELEMENT tStep 1 number 292 irule 0 gp 4 keyword 4 component 1  value -4.6940e-05
#ELEMENT tStep 1 number 292 irule 0 gp 4 keyword 4 component 2  value 1.5550e-05
##ELEMENT tStep 1 number 292 irule 1 gp 1 keyword 1 component 1  value -1.3937e+00
##ELEMENT tStep 1 number 292 irule 1 gp 1 keyword 1 component 2  value 4.8380e-02
#####
#ELEMENT tStep 1 number 292 irule 0 gp 9 keyword 4 component 1  value -4.4750e-05
#ELEMENT tStep 1 number 292 irule 0 gp 9 keyword 4 component 2  value 2.7014e-05
##ELEMENT tStep 1 number 292 irule 2 gp 3 keyword 1 component 1  value -1.2081e+00
##ELEMENT tStep 1 number 292 irule 2 gp 3 keyword 1 component 2  value 4.4799e-01
#ELEMENT tStep 1 number 292 irule 0 gp 8 keyword 4 component 1  value -4.6055e-05
#ELEMENT tStep 1 number 292 irule 0 gp 8 keyword 4 component 2  value 2.0509e-05
##ELEMENT tStep 1 number 292 irule 2 gp 2 keyword 1 component 1  value -1.3155e+00
##ELEMENT tStep 1 number 292 irule 2 gp 2 keyword 1 component 2  value 2.2065e-01
#ELEMENT tStep 1 number 292 irule 0 gp 7 keyword 4 component 1  value -3.5116e-05
#ELEMENT tStep 1 number 292 irule 0 gp 7 keyword 4 component 2  value 3.2514e-05
##ELEMENT tStep 1 number 292 irule 2 gp 1 keyword 1 component 1  value -8.3611e-01
##ELEMENT tStep 1 number 292 irule 2 gp 1 keyword 1 component 2  value 7.2460e-01
#####
#ELEMENT tStep 1 number 292 irule 0 gp 12 keyword 4 component 1  value -3.1936e-05
#ELEMENT tStep 1 number 292 irule 0 gp 12 keyword 4 component 2  value 2.9196e-05
##ELEMENT tStep 1 number 292 irule 3 gp 3 keyword 1 component 1  value -7.6409e-01
##ELEMENT tStep 1 number 292 irule 3 gp 3 keyword 1 component 2  value 6.4667e-01
#ELEMENT tStep 1 number 292 irule 0 gp 11 keyword 4 component 1  value -4.3975e-05
#ELEMENT tStep 1 number 292 irule 0 gp 11 keyword 4 component 2  value 1.8130e-05
##ELEMENT tStep 1 number 292 irule 3 gp 2 keyword 1 component 1  value -1.2704e+00
##ELEMENT tStep 1 number 292 irule 3 gp 2 keyword 1 component 2  value 1.6277e-01
#ELEMENT tStep 1 number 292 irule 0 gp 10 keyword 4 component 1  value -3.4235e-05
#ELEMENT tStep 1 number 292 irule 0 gp 10 keyword 4 component 2  value 1.5110e-05
##ELEMENT tStep 1 number 292 irule 0 gp 10 keyword 1 component 1  value -9.7918e-01
##ELEMENT tStep 1 number 292 irule 0 gp 10 keyword 1 component 2  value 1.5954e-01
######## element 268
#ELEMENT tStep 1 number 268 irule 0 gp 1 keyword 4 component 1  value -3.1999e-05
#ELEMENT tStep 1 number 268 irule 0 gp 1 keyword 4 component 2  value 7.3074e-05
##ELEMENT tStep 1 number 268 irule 0 gp 1 keyword 1 component 1  value -3.3219e-01
##ELEMENT tStep 1 number 268 irule 0 gp 1 keyword 1 component 2  value 2.0926e+00
#ELEMENT tStep 1 number 268 irule 0 gp 2 keyword 4 component 1  value 2.0829e-06
#ELEMENT tStep 1 number 268 irule 0 gp 2 keyword 4 component 2  value 3.8646e-05
##ELEMENT tStep 1 number 268 irule 0 gp 2 keyword 1 component 1  value 4.5088e-01
##ELEMENT tStep 1 number 268 irule 0 gp 2 keyword 1 component 2  value 1.2947e+00
#ELEMENT tStep 1 number 268 irule 0 gp 3 keyword 4 component 1  value 2.5693e-07
#ELEMENT tStep 1 number 268 irule 0 gp 3 keyword 4 component 2  value 1.7213e-05
##ELEMENT tStep 1 number 268 irule 0 gp 3 keyword 1 component 1  value 1.7871e-01
##ELEMENT tStep 1 number 268 irule 0 gp 3 keyword 1 component 2  value 5.7001e-01
#####
#ELEMENT tStep 1 number 268 irule 0 gp 4 keyword 4 component 1  value -7.2460e-06
#ELEMENT tStep 1 number 268 irule 0 gp 4 keyword 4 component 2  value 5.3247e-05
##ELEMENT tStep 1 number 268 irule 1 gp 1 keyword 1 component 1  value 2.8774e-01
##ELEMENT tStep 1 number 268 irule 1 gp 1 keyword 1 component 2  value 1.6837e+00
#ELEMENT tStep 1 number 268 irule 0 gp 5 keyword 4 component 1  value -2.2740e-06
#ELEMENT tStep 1 number 268 irule 0 gp 5 keyword 4 component 2  value 4.8053e-05
##ELEMENT tStep 1 number 268 irule 1 gp 2 keyword 1 component 1  value 4.0028e-01
##ELEMENT tStep 1 number 268 irule 1 gp 2 keyword 1 component 2  value 1.5617e+00
#ELEMENT tStep 1 number 268 irule 0 gp 6 keyword 4 component 1  value -3.5502e-05
#ELEMENT tStep 1 number 268 irule 0 gp 6 keyword 4 component 2  value 8.2259e-05
##ELEMENT tStep 1 number 268 irule 1 gp 3 keyword 1 component 1  value -3.5685e-01
##ELEMENT tStep 1 number 268 irule 1 gp 3 keyword 1 component 2  value 2.3607e+00
#####
#ELEMENT tStep 1 number 268 irule 0 gp 7 keyword 4 component 1  value -3.2105e-05
#ELEMENT tStep 1 number 268 irule 0 gp 7 keyword 4 component 2  value 6.9251e-05
##ELEMENT tStep 1 number 268 irule 2 gp 1 keyword 1 component 1  value -3.7352e-01
##ELEMENT tStep 1 number 268 irule 2 gp 1 keyword 1 component 2  value 1.9655e+00
#ELEMENT tStep 1 number 268 irule 0 gp 8 keyword 4 component 1  value -8.2206e-06
#ELEMENT tStep 1 number 268 irule 0 gp 8 keyword 4 component 2  value 1.4060e-05
##ELEMENT tStep 1 number 268 irule 2 gp 2 keyword 1 component 1  value -1.3195e-01
##ELEMENT tStep 1 number 268 irule 2 gp 2 keyword 1 component 2  value 3.8223e-01
#ELEMENT tStep 1 number 268 irule 0 gp 9 keyword 4 component 1  value -2.0811e-05
#ELEMENT tStep 1 number 268 irule 0 gp 9 keyword 4 component 2  value 2.4524e-05
##ELEMENT tStep 1 number 268 irule 2 gp 3 keyword 1 component 1  value -4.4353e-01
##ELEMENT tStep 1 number 268 irule 2 gp 3 keyword 1 component 2  value 6.0266e-01
######## element 273
#ELEMENT tStep 1 number 273 irule 0 gp 6 keyword 4 component 1  value -3.1999e-05
#ELEMENT tStep 1 number 273 irule 0 gp 6 keyword 4 component 2  value 7.3074e-05
##ELEMENT tStep 1 number 273 irule 0 gp 6 keyword 1 component 1  value -3.3219e-01
##ELEMENT tStep 1 number 273 irule 0 gp 6 keyword 1 component 2  value 2.0926e+00
#ELEMENT tStep 1 number 273 irule 0 gp 5 keyword 4 component 1  value 2.0829e-06
#ELEMENT tStep 1 number 273 irule 0 gp 5 keyword 4 component 2  value 3.8646e-05
##ELEMENT tStep 1 number 273 irule 0 gp 5 keyword 1 component 1  value 4.5088e-01
##ELEMENT tStep 1 number 273 irule 0 gp 5 keyword 1 component 2  value 1.2947e+00
#ELEMENT tStep 1 number 273 irule 0 gp 4 keyword 4 component 1  value 2.5693e-07
#ELEMENT tStep 1 number 273 irule 0 gp 4 keyword 4 component 2  value 1.7213e-05
##ELEMENT tStep 1 number 273 irule 1 gp 1 keyword 1 component 1  value 1.7871e-01
##ELEMENT tStep 1 number 273 irule 1 gp 1 keyword 1 component 2  value 5.7001e-01
#####
#ELEMENT tStep 1 number 273 irule 0 gp 9 keyword 4 component 1  value -7.2460e-06
#ELEMENT tStep 1 number 273 irule 0 gp 9 keyword 4 component 2  value 5.3247e-05
##ELEMENT tStep 1 number 273 irule 2 gp 3 keyword 1 component 1  value 2.8774e-01
##ELEMENT tStep 1 number 273 irule 2 gp 3 keyword 1 component 2  value 1.6837e+00
#ELEMENT tStep 1 number 273 irule 0 gp 8 keyword 4 component 1  value -2.2740e-06
#ELEMENT tStep 1 number 273 irule 0 gp 8 keyword 4 component 2  value 4.8053e-05
##ELEMENT tStep 1 number 273 irule 2 gp 2 keyword 1 component 1  value 4.0028e-01
##ELEMENT tStep 1 number 273 irule 2 gp 2 keyword 1 component 2  value 1.5617e+00
#ELEMENT tStep 1 number 273 irule 0 gp 7 keyword 4 component 1  value -3.5502e-05
#ELEMENT tStep 1 number 273 irule 0 gp 7 keyword 4 component 2  value 8.2259e-05
##ELEMENT tStep 1 number 273 irule 2 gp 1 keyword 1 component 1  value -3.5685e-01
##ELEMENT tStep 1 number 273 irule 2 gp 1 keyword 1 component 2  value 2.3607e+00
#####
#ELEMENT tStep 1 number 273 irule 0 gp 12 keyword 4 component 1  value -3.2105e-05
#ELEMENT tStep 1 number 273 irule 0 gp 12 keyword 4 component 2  value 6.9251e-05
##ELEMENT tStep 1 number 273 irule 3 gp 3 keyword 1 component 1  value -3.7352e-01
##ELEMENT tStep 1 number 273 irule 3 gp 3 keyword 1 component 2  value 1.9655e+00
#ELEMENT tStep 1 number 273 irule 0 gp 11 keyword 4 component 1  value -8.2206e-06
#ELEMENT tStep 1 number 273 irule 0 gp 11 keyword 4 component 2  value 1.4060e-05
##ELEMENT tStep 1 number 273 irule 3 gp 2 keyword 1 component 1  value -1.3195e-01
##ELEMENT tStep 1 number 273 irule 3 gp 2 keyword 1 component 2  value 3.8223e-01
#ELEMENT tStep 1 number 273 irule 0 gp 10 keyword 4 component 1  value -2.0811e-05
#ELEMENT tStep 1 number 273 irule 0 gp 10 keyword 4 component 2  value 2.4524e-05
##ELEMENT tStep 1 number 273 irule 3 gp 1 keyword 1 component 1  value -4.4353e-01
##ELEMENT tStep 1 number 273 irule 3 gp 1 keyword 1 component 2  value 6.0266e-01
#%END_CHECK%

