a_tr2shell7.out
Cantilever beam test using Tr2Shell7 elements - should be moved to benchmark as it is currently too big to fit under tests
# Tip deflection is according to beam theory: p = PL^3/3EI = 0.3333
#
NonLinearStatic nsteps 1 lstype 0 smtype 0 rtolv 1.0e-5 manrmsteps 1 controllmode 1 nmodules 0
#vtkxml tstep_all dofman_all element_all primvars 1 1 vars 2 1 99
domain 3dDirShell 
OutputManager tstep_all dofman_all element_all
ndofman 99 nelem 32 ncrosssect  1 nmat 1 nbc 2 nic 0 nltf 1
node 1	coords 3	-0.000000	-0.000000	0.000000	 bc 7 1 1 1 1 1 1 0 	
node 2	coords 3	10.000000	-0.000000	0.000000	 
node 3	coords 3	10.000000	1.000000	0.000000	 
node 4	coords 3	0.000000	1.000000	0.000000	 bc 7 1 1 1 1 1 1 0 	
node 5	coords 3	5.000000	0.000000	0.000000	 	
node 6	coords 3	5.000000	1.000000	0.000000	 	
node 7	coords 3	2.500000	0.000000	0.000000	 	
node 8	coords 3	2.500000	1.000000	0.000000	 	
node 9	coords 3	7.500000	0.000000	0.000000	 	
node 10	coords 3	7.500000	1.000000	0.000000	 	
node 11	coords 3	6.250000	0.000000	0.000000	 	
node 12	coords 3	6.250000	1.000000	0.000000	 	
node 13	coords 3	3.750000	0.000000	0.000000	 	
node 14	coords 3	3.750000	1.000000	0.000000	 	
node 15	coords 3	1.250000	0.000000	0.000000	 	
node 16	coords 3	1.250000	1.000000	0.000000	 	
node 17	coords 3	1.875000	0.000000	0.000000	 	
node 18	coords 3	1.875000	1.000000	0.000000	 	
node 19	coords 3	3.125000	0.000000	0.000000	 	
node 20	coords 3	3.125000	1.000000	0.000000	 	
node 21	coords 3	8.750000	0.000000	0.000000	 	
node 22	coords 3	8.750000	1.000000	0.000000	 	
node 23	coords 3	8.125000	0.000000	0.000000	 	
node 24	coords 3	8.125000	1.000000	0.000000	 	
# ... 63 like lines cut
node 88	coords 3	0.000000	0.500000	0.000000	 bc 7 1 1 1 1 1 1 0	
node 89	coords 3	0.312500	0.000000	0.000000		
node 90	coords 3	0.312500	0.500000	0.000000	 	
node 91	coords 3	0.625000	0.500000	0.000000		
node 92	coords 3	0.312500	1.000000	0.000000		
node 93	coords 3	0.937500	1.000000	0.000000		
node 94	coords 3	9.687500	0.500000	0.000000		
node 95	coords 3	9.687500	0.000000	0.000000		
node 96	coords 3	10.000000	0.500000	0.000000	
node 97	coords 3	9.687500	1.000000	0.000000		
node 98	coords 3	9.375000	0.500000	0.000000		
node 99	coords 3	9.062500	1.000000	0.000000		
Tr2Shell7 1	nodes	6	12	27	11	35	36	37	 mat 1 crossSect 1 
Tr2Shell7 2	nodes	6	12	11	25	37	38	39	 mat 1 crossSect 1 
Tr2Shell7 3	nodes	6	14	13	29	40	41	42	 mat 1 crossSect 1 	 
Tr2Shell7 4	nodes	6	14	19	13	43	44	40	 mat 1 crossSect 1 	
Tr2Shell7 5	nodes	6	16	31	15	45	46	47	 mat 1 crossSect 1 	
Tr2Shell7 6	nodes	6	16	15	17	47	48	49	 mat 1 crossSect 1 
Tr2Shell7 7	nodes	6	8	17	7	50	51	52	 mat 1 crossSect 1 	 
Tr2Shell7 8	nodes	6	17	8	18	50	53	54	 mat 1 crossSect 1 	 
Tr2Shell7 9	nodes	6	17	18	16	54	55	49	 mat 1 crossSect 1 	 
Tr2Shell7 10	nodes	6	8	7	19	52	56	57	 mat 1 crossSect 1 
Tr2Shell7 11	nodes	6	19	20	8	58	59	57	 mat 1 crossSect 1 
Tr2Shell7 12	nodes	6	19	14	20	43	60	58	 mat 1 crossSect 1 	 
Tr2Shell7 13	nodes	6	22	21	33	61	62	63	 mat 1 crossSect 1 
Tr2Shell7 14	nodes	6	22	23	21	64	65	61	 mat 1 crossSect 1 	 
Tr2Shell7 15	nodes	6	10	9	23	66	67	68	 mat 1 crossSect 1 
Tr2Shell7 16	nodes	6	23	24	10	69	70	68	 mat 1 crossSect 1 	 
Tr2Shell7 17	nodes	6	23	22	24	64	71	69	 mat 1 crossSect 1 	 
Tr2Shell7 18	nodes	6	10	25	9	72	73	66	 mat 1 crossSect 1 	 
Tr2Shell7 19	nodes	6	25	10	26	72	74	75	 mat 1 crossSect 1 
Tr2Shell7 20	nodes	6	25	26	12	75	76	39	 mat 1 crossSect 1 	 
# ... 9 like lines cut
Tr2Shell7 30	nodes	6	3	33	2	94	95	96	 mat 1 crossSect 1 	 boundaryLoads  2 2 3 
Tr2Shell7 31	nodes	6	33	3	34	94	97	98	 mat 1 crossSect 1 	
Tr2Shell7 32	nodes	6	33	34	22	98	99	63	 mat 1 crossSect 1 	 
layeredCS 1 nlayers 2 layermaterials 2 1 1 thicks 2 0.05 0.05 nintegrationpoints 2
#layeredCS 1 nlayers 4 layermaterials 4 1 1 1 1 thicks 4 0.05 0.05 0.05 0.05 nintegrationpoints 2
#layeredCS 1 nlayers 1 layermaterials 1 1 thicks 1 0.1 nintegrationpoints 2
IsoLE 1 d 1. E 12e6. n 0.0 tAlpha 0.
BoundaryCondition 1 loadTimeFunction 1 prescribedvalue 0.0
ConstantEdgeLoad 2 ndofs 7 loadType 1 loadTimeFunction 1 cstype 0 Components 7 0. 0. -1. 0. 0. 0. 0.0
ConstantFunction 1 f(t) 1.0
#
#%BEGIN_CHECK% tolerance 1.e-5
## Check unknowns in node 96 (edge node)
#NODE tStep 0 number 96 dof 1 unknown d value -6.65434018e-003
#NODE tStep 0 number 96 dof 2 unknown d value 2.48899759e-006
#NODE tStep 0 number 96 dof 3 unknown d value -3.32925393e-001
#NODE tStep 0 number 96 dof 4 unknown d value 4.99564585e-002
#NODE tStep 0 number 96 dof 5 unknown d value -8.39799712e-006
#NODE tStep 0 number 96 dof 6 unknown d value -1.24860412e-003
#NODE tStep 0 number 96 dof 7 unknown d value 6.90700396e-006
#%END_CHECK%
#
