axisymm01.out
Test of linear axisymmetric quadrilateral elements, a thin ring with internal overpressure.
LinearStatic nsteps 1 nmodules 1
errorcheck
#vtkxml tstep_step 1 cellvars 1 46 vars 3 1 2 4 primvars 1 1 stype 2
domain 2dPlaneStress
OutputManager tstep_all dofman_all element_all
ndofman 6 nelem 2 ncrosssect 1 nmat 1 nbc 2 nic 0 nltf 1 nset 3
Node 1 coords 2 4.0  0.0
Node 2 coords 2 4.0  0.1
Node 3 coords 2 4.1  0.0
Node 4 coords 2 4.1  0.1
Node 5 coords 2 4.2  0.0
Node 6 coords 2 4.2  0.1
L4Axisymm 1 nodes 4 1 3 4 2 BoundaryLoads 2 2 4
L4Axisymm 2 nodes 4 3 5 6 4
SimpleCS 1 material 1 set 1
IsoLE 1 d 1.0 E 1000. n 0.0 tAlpha 0.000012
BoundaryCondition 1 loadTimeFunction 1 dofs 1 2 values 1 0.0 set 2
ConstantEdgeLoad 2 loadTimeFunction 1 components 2 10.0 0.0 loadType 3
ConstantFunction 1 f(t) 1.0
Set 1 elementranges {(1 2)}
Set 2 nodes 3 1 3 5
Set 3 elementboundaries 2 1 4

#%BEGIN_CHECK% tolerance 1.e-2
##Exact displacement is 0.82 for r=4.1
#NODE tStep 1 number 1 dof 1 unknown d value 8.20487805e-01
#NODE tStep 1 number 2 dof 1 unknown d value 8.20487805e-01
#NODE tStep 1 number 3 dof 1 unknown d value 8.19750149e-01
#NODE tStep 1 number 4 dof 1 unknown d value 8.19750149e-01
#NODE tStep 1 number 5 dof 1 unknown d value 8.19512195e-01
#NODE tStep 1 number 6 dof 1 unknown d value 8.19512195e-01
#NODE tStep 1 number 6 dof 2 unknown d value 0.0
##Constant strains and stresses over an element
##Element 1
#ELEMENT tStep 1 number 1 gp 1 keyword 4 component 1  value -7.3766e-03
#ELEMENT tStep 1 number 1 gp 1 keyword 4 component 2  value 0.0
##Exact solution for r=4.1 is 2.05e-1
#ELEMENT tStep 1 number 1 gp 1 keyword 4 component 3  value 2.0250e-01
#ELEMENT tStep 1 number 1 gp 1 keyword 4 component 6  value 0.0
#ELEMENT tStep 1 number 1 gp 4 keyword 4 component 1  value -7.3766e-03
#ELEMENT tStep 1 number 1 gp 4 keyword 4 component 2  value 0.0
##Exact solution for r=4.1 is 2.05e-1
#ELEMENT tStep 1 number 1 gp 4 keyword 4 component 3  value 2.0250e-01
#ELEMENT tStep 1 number 1 gp 4 keyword 4 component 6  value 0.0
#ELEMENT tStep 1 number 1 gp 1 keyword 1 component 1  value -7.3766e+00
#ELEMENT tStep 1 number 1 gp 1 keyword 1 component 2  value 0.0
##Exact solution for r=4.1 is sig_theta=205.0
#ELEMENT tStep 1 number 1 gp 1 keyword 1 component 3  value 2.0250e+02
#ELEMENT tStep 1 number 1 gp 1 keyword 1 component 6  value 0.0
#ELEMENT tStep 1 number 1 gp 4 keyword 1 component 1  value -7.3766e+00
#ELEMENT tStep 1 number 1 gp 4 keyword 1 component 2  value 0.0
#ELEMENT tStep 1 number 1 gp 4 keyword 1 component 3  value 2.0250e+02
#ELEMENT tStep 1 number 1 gp 4 keyword 1 component 6  value 0.0
##Element 2
#ELEMENT tStep 1 number 2 gp 1 keyword 4 component 1  value -2.3795e-03
#ELEMENT tStep 1 number 2 gp 1 keyword 4 component 2  value 0.0
##Exact solution for r=4.1 is 2.05e-1
#ELEMENT tStep 1 number 2 gp 1 keyword 4 component 3  value 1.9750e-01
#ELEMENT tStep 1 number 2 gp 1 keyword 4 component 6  value 0.0
#ELEMENT tStep 1 number 2 gp 4 keyword 4 component 1  value -2.3795e-03
#ELEMENT tStep 1 number 2 gp 4 keyword 4 component 2  value 0.0
#ELEMENT tStep 1 number 2 gp 4 keyword 4 component 3  value 1.9750e-01
#ELEMENT tStep 1 number 2 gp 4 keyword 4 component 6  value 0.0
#ELEMENT tStep 1 number 2 gp 1 keyword 1 component 1  value -2.3795e+00
#ELEMENT tStep 1 number 2 gp 1 keyword 1 component 2  value 0.0
##Exact solution for r=4.1 is sig_theta=205.0
#ELEMENT tStep 1 number 2 gp 1 keyword 1 component 3  value 1.9750e+02
#ELEMENT tStep 1 number 2 gp 1 keyword 1 component 6  value 0.0
#ELEMENT tStep 1 number 2 gp 4 keyword 1 component 1  value -2.3795e+00
#ELEMENT tStep 1 number 2 gp 4 keyword 1 component 2  value 0.0
#ELEMENT tStep 1 number 2 gp 4 keyword 1 component 3  value 1.9750e+02
#ELEMENT tStep 1 number 2 gp 4 keyword 1 component 6  value 0.0
#%END_CHECK%
