axisymm03.out
Test of linear axisymmetric quadrilateral elements, a thin ring loaded only in radial direction (y direction)
LinearStatic nsteps 1 nmodules 1
errorcheck
#vtkxml tstep_step 1 cellvars 1 46 vars 3 1 2 4 primvars 1 1 stype 2
domain 2dPlaneStress
OutputManager tstep_all dofman_all element_all
ndofman 6 nelem 2 ncrosssect 1 nmat 1 nbc 2 nic 0 nltf 1 nset 2
Node 1 coords 2 4.0  0.0
Node 2 coords 2 4.0  2.0
Node 3 coords 2 7.0  0.0
Node 4 coords 2 7.0  2.0
Node 5 coords 2 10.  0.0
Node 6 coords 2 10.  2.0
L4Axisymm 1 nodes 4 1 3 4 2 boundaryLoads 2 2 3
L4Axisymm 2 nodes 4 3 5 6 4 boundaryLoads 2 2 3
SimpleCS 1 material 1 set 1
IsoLE 1 d 1.0 E 1000. n 0.0 tAlpha 0.000012
BoundaryCondition 1 loadTimeFunction 1 dofs 1 2 values 1 0.0 set 2
ConstantEdgeLoad 2 loadTimeFunction 1 components 2 0.0 10.0 loadType 3
ConstantFunction 1 f(t) 1.0
Set 1 elementranges {(1 2)}
Set 2 nodes 3 1 3 5
Set 3 elementboundaries 4 1 2  2 2

#%BEGIN_CHECK% tolerance 1.e-6
##Exact displacement is 2.0e-2
#NODE tStep 1 number 2 dof 2 unknown d value 2.31711636e-02
#NODE tStep 1 number 4 dof 2 unknown d value 1.98945383e-02
#NODE tStep 1 number 6 dof 2 unknown d value 1.84022940e-02
##Constant strains and stresses over an element
##Element 1
#ELEMENT tStep 1 number 1 gp 1 keyword 4 component 1  value -5.3613e-05
##Exact solution for is 1.0e-1
#ELEMENT tStep 1 number 1 gp 1 keyword 4 component 2  value 1.0293e-02
#ELEMENT tStep 1 number 1 gp 1 keyword 4 component 3  value 0.0
#ELEMENT tStep 1 number 1 gp 1 keyword 4 component 6  value -4.1271e-05
#ELEMENT tStep 1 number 1 gp 4 keyword 4 component 1  value 5.3613e-05
##Exact solution for is 1.0e-1
#ELEMENT tStep 1 number 1 gp 4 keyword 4 component 2  value 1.1239e-02
#ELEMENT tStep 1 number 1 gp 4 keyword 4 component 3  value 0.0
#ELEMENT tStep 1 number 1 gp 4 keyword 4 component 6  value -4.1271e-05
#ELEMENT tStep 1 number 1 gp 1 keyword 1 component 1  value -5.3613e-02
##Exact solution is sig_y=10.0
#ELEMENT tStep 1 number 1 gp 1 keyword 1 component 2  value 1.02934853e+01
#ELEMENT tStep 1 number 1 gp 4 keyword 1 component 1  value 5.3613e-02
##Exact solution is sig_y=10.0
#ELEMENT tStep 1 number 1 gp 4 keyword 1 component 2  value 1.12393656e+01
##Element 2
#ELEMENT tStep 1 number 2 gp 1 keyword 4 component 1  value -3.4691e-05
#ELEMENT tStep 1 number 2 gp 1 keyword 4 component 2  value 9.3588e-03
##Exact solution is 2.05e-1
#ELEMENT tStep 1 number 2 gp 1 keyword 4 component 3  value 0.0
#ELEMENT tStep 1 number 2 gp 1 keyword 4 component 6  value 2.6705e-05
#ELEMENT tStep 1 number 2 gp 4 keyword 4 component 1  value 3.4691e-05
#ELEMENT tStep 1 number 2 gp 4 keyword 4 component 2  value 9.7896e-03
#ELEMENT tStep 1 number 2 gp 4 keyword 4 component 3  value 0.0
#ELEMENT tStep 1 number 2 gp 4 keyword 4 component 6  value 2.6705e-05
#ELEMENT tStep 1 number 2 gp 1 keyword 1 component 1  value -3.4691e-02
##Exact solution is sig_y=10.0
#ELEMENT tStep 1 number 2 gp 1 keyword 1 component 2  value 9.358821e+00
#ELEMENT tStep 1 number 2 gp 4 keyword 1 component 1  value 3.4691e-02
##Exact solution is sig_y=10.0
#ELEMENT tStep 1 number 2 gp 4 keyword 1 component 2  value 9.789595e+00
#%END_CHECK%
