axisymm06.out
Test of linear axisymmetric triangular elements, a thin ring loaded only in radial direction (y direction)
LinearStatic nsteps 1 nmodules 1
errorcheck filename "axisymm06.in"
#vtkxml tstep_step 1 cellvars 1 46 vars 3 1 2 4 primvars 1 1 stype 2
domain 2dPlaneStress
OutputManager tstep_all dofman_all element_all
ndofman 6 nelem 4 ncrosssect 1 nmat 1 nbc 2 nic 0 nltf 1
Node 1 coords 2 4.0  0.0 bc 2 0 1
Node 2 coords 2 4.0  2.0 
Node 3 coords 2 7.0  0.0 bc 2 0 1
Node 4 coords 2 7.0  2.0 
Node 5 coords 2 10.  0.0 bc 2 0 1
Node 6 coords 2 10.  2.0 
Axisymm3d 1 nodes 3 1 4 2 NIP 1 crossSect 1 mat 1 BoundaryLoads 2 2 2
Axisymm3d 2 nodes 3 1 3 4 NIP 1 crossSect 1 mat 1
Axisymm3d 3 nodes 3 3 6 4 NIP 1 crossSect 1 mat 1 BoundaryLoads 2 2 2
Axisymm3d 4 nodes 3 3 5 6 NIP 1 crossSect 1 mat 1
SimpleCS 1
IsoLE 1 d 1.0 E 1000. n 0.0 tAlpha 0.000012
BoundaryCondition 1 loadTimeFunction 1 prescribedvalue 0.0
ConstantEdgeLoad 2 loadTimeFunction 1 components 2 0.0 10.0 loadType 3 ndofs 2
ConstantFunction 1 f(t) 1.0
#%BEGIN_CHECK% tolerance 1.e-6
##Exact displacement is 2.0e-2
#NODE tStep 1 number 2 dof 2 unknown d value 2.19036007e-02
#NODE tStep 1 number 4 dof 2 unknown d value 1.99832366e-02
#NODE tStep 1 number 6 dof 2 unknown d value 1.89685205e-02
##Constant strains and stresses over an element
##Element 1
#ELEMENT tStep 1 number 1 gp 1 keyword 4 component 1  value -1.0412e-04
##Exact solution for is 1.0e-1
#ELEMENT tStep 1 number 1 gp 1 keyword 4 component 2  value 1.0952e-02
#ELEMENT tStep 1 number 1 gp 1 keyword 4 component 3  value 2.1648e-05
#ELEMENT tStep 1 number 1 gp 1 keyword 4 component 6  value -1.4460e-04
#ELEMENT tStep 1 number 1 gp 1 keyword 1 component 1  value -1.0412e-01
##Exact solution is sig_y=10.0
#ELEMENT tStep 1 number 1 gp 1 keyword 1 component 2  value 1.09518003e+01
##Element 4
#ELEMENT tStep 1 number 4 gp 1 keyword 4 component 1  value 4.5464e-05
##Exact solution for is 1.0e-1
#ELEMENT tStep 1 number 4 gp 1 keyword 4 component 2  value 9.4843e-03
#ELEMENT tStep 1 number 4 gp 1 keyword 4 component 3  value -5.1712e-06
#ELEMENT tStep 1 number 4 gp 1 keyword 4 component 6  value 5.9853e-05
#ELEMENT tStep 1 number 4 gp 1 keyword 1 component 1  value 4.5464e-02
##Exact solution is sig_y=10.0
#ELEMENT tStep 1 number 4 gp 1 keyword 1 component 2  value 9.48426023e+00
#%END_CHECK%
