axisymm02.out
Test of linear axisymmetric quadrilateral elements, thick ring with internal overpressure, test based on lectures Advanced Finite Elements for Solids, Plates and Shells from Felippa, Colorado, Chapter 6, version 2013, pp. 6-11. Exact solution is on page 7-4.
#Exact solution for radial displacement u_r = (100+r^2)/(525*r)
#Exact solution for radial stress sig_r = 40./21.*(1-100./r^2)
#Exact solution for hoop stress sig_theta = 40./21.*(1+100./r^2)
LinearStatic nsteps 1 nmodules 0
#vtkxml tstep_step 1 cellvars 1 46 vars 3 1 2 4 primvars 1 1 stype 2
domain 2dPlaneStress
OutputManager tstep_all dofman_all element_all
ndofman 6 nelem 2 ncrosssect 1 nmat 1 nbc 4 nic 0 nltf 1
Node 1 coords 2 4.0  0.0 bc 2 0 1 load 1 2
Node 2 coords 2 4.0  2.0 bc 2 0 1 load 1 2
Node 3 coords 2 7.0  0.0 bc 2 0 1
Node 4 coords 2 7.0  2.0 bc 2 0 1
Node 5 coords 2 10.0 0.0 bc 2 0 1
Node 6 coords 2 10.0 2.0 bc 2 0 1
L4Axisymm 1 nodes 4 1 3 4 2 NIP 4 crossSect 1 mat 1 BoundaryLoads 2 3 4
L4Axisymm 2 nodes 4 3 5 6 4 NIP 4 crossSect 1 mat 1 bodyloads 1 4
SimpleCS 1
IsoLE 1 d 1.0 E 1000. n 0.0 tAlpha 0.000012
BoundaryCondition 1 loadTimeFunction 1 prescribedvalue 0.0
#NodalLoad 2 loadTimeFunction 1 Components 2  40. 0.
NodalLoad 2 loadTimeFunction 1 Components 2 0. 0.
ConstantEdgeLoad 3 loadTimeFunction 1 components 2 10.0 0.0 loadType 3 ndofs 2
DeadWeight 4 loadTimeFunction 1 Components 2 0. 0.
ConstantFunction 1 f(t) 1.0
#%BEGIN_CHECK% tolerance 1.e-6
##Exact solution is 5.523809523809524e-2
#NODE tStep 1 number 1 dof 1 unknown d value 5.52380952e-02
#NODE tStep 1 number 2 dof 1 unknown d value 5.52380952e-02
##Exact solution is 4.054421768707483e-2
#NODE tStep 1 number 3 dof 1 unknown d value 4.05442177e-02
#NODE tStep 1 number 4 dof 1 unknown d value 4.05442177e-02
##Exact solution is 3.809523809523809e-2
#NODE tStep 1 number 5 dof 1 unknown d value 3.80952381e-02
#NODE tStep 1 number 6 dof 1 unknown d value 3.80952381e-02
##Constant strains and stresses over an element
##Element 1
#ELEMENT tStep 1 number 1 gp 1 keyword "strains" component 1  value -4.8980e-03
#ELEMENT tStep 1 number 1 gp 1 keyword "strains" component 2  value 0.0
#ELEMENT tStep 1 number 1 gp 1 keyword "strains" component 3  value 8.7075e-03
#ELEMENT tStep 1 number 1 gp 1 keyword "strains" component 6  value 0.0
#ELEMENT tStep 1 number 1 gp 4 keyword "strains" component 1  value -4.8980e-03
#ELEMENT tStep 1 number 1 gp 4 keyword "strains" component 2  value 0.0
#ELEMENT tStep 1 number 1 gp 4 keyword "strains" component 3  value 8.7075e-03
#ELEMENT tStep 1 number 1 gp 4 keyword "strains" component 6  value 0.0
##Exact solution at r=4.633 sig_r=-6.965, sig_theta=10.77
##Exact solution at r=6.366 sig_r=-2.80, sig_theta=6.60
#ELEMENT tStep 1 number 1 gp 1 keyword "stresses" component 1  value -4.8980e+00
#ELEMENT tStep 1 number 1 gp 1 keyword "stresses" component 2  value 0.0
#ELEMENT tStep 1 number 1 gp 1 keyword "stresses" component 3  value 8.7075e+00
#ELEMENT tStep 1 number 1 gp 1 keyword "stresses" component 6  value 0.0
#ELEMENT tStep 1 number 1 gp 4 keyword "stresses" component 1  value -4.8980e+00
#ELEMENT tStep 1 number 1 gp 4 keyword "stresses" component 2  value 0.0
#ELEMENT tStep 1 number 1 gp 4 keyword "stresses" component 3  value 8.7075e+00
#ELEMENT tStep 1 number 1 gp 4 keyword "stresses" component 6  value 0.0
##Element 2
#ELEMENT tStep 1 number 2 gp 1 keyword "strains" component 1  value -8.1633e-04
#ELEMENT tStep 1 number 2 gp 1 keyword "strains" component 2  value 0.0
#ELEMENT tStep 1 number 2 gp 1 keyword "strains" component 3  value 4.6259e-03
#ELEMENT tStep 1 number 2 gp 1 keyword "strains" component 6  value 0.0
#ELEMENT tStep 1 number 2 gp 4 keyword "strains" component 1  value -8.1633e-04
#ELEMENT tStep 1 number 2 gp 4 keyword "strains" component 2  value 0.0
#ELEMENT tStep 1 number 2 gp 4 keyword "strains" component 3  value 4.6259e-03
#ELEMENT tStep 1 number 2 gp 4 keyword "strains" component 6  value 0.0
##Exact solution at r=7.633 sig_r=-1.36, sig_theta=5.17
##Exact solution at r=9.366 sig_r=-0.27, sig_theta=4.08
#ELEMENT tStep 1 number 2 gp 1 keyword "stresses" component 1  value -8.1633e-01
#ELEMENT tStep 1 number 2 gp 1 keyword "stresses" component 2  value 0.0
#ELEMENT tStep 1 number 2 gp 1 keyword "stresses" component 3  value 4.6259e+00
#ELEMENT tStep 1 number 2 gp 1 keyword "stresses" component 6  value 0.0
#ELEMENT tStep 1 number 2 gp 4 keyword "stresses" component 1  value -8.1633e-01
#ELEMENT tStep 1 number 2 gp 4 keyword "stresses" component 2  value 0.0
#ELEMENT tStep 1 number 2 gp 4 keyword "stresses" component 3  value 4.6259e+00
#ELEMENT tStep 1 number 2 gp 4 keyword "stresses" component 6  value 0.0
#%END_CHECK%
