beam2d_2.out
Homework www sm40 no. 7
#only momentum influence to the displacements is taken into account
#beamShearCoeff is artificially enlarged.
LinearStatic nsteps 1
domain 2dBeam
OutputManager tstep_all dofman_all element_all
ndofman 7 nelem 6 ncrosssect  1 nmat 1 nbc 4 nic 0 nltf 1
node 1 coords 3 0.  0.0 0.  bc 3 1 1 1
node 2 coords 3 0.7 0.0 0.  bc 3 0 0 0
node 3 coords 3 1.4 0.0 0.  bc 3 0 0 0
node 4 coords 3 1.4 0.0 3.2 bc 3 1 1 1 
node 5 coords 3 1.4 0.0 2.0 bc 3 0 0 0 load 1 3
node 6 coords 3 2.4 0.0 0.  bc 3 0 0 0 load 1 4
node 7 coords 3 3.4 0.0 0.  bc 3 0 1 0
Beam2d 1 nodes 2 1 2 mat 1 crossSect 1 boundaryLoads 2 2 1
Beam2d 2 nodes 2 2 3 mat 1 crossSect 1 boundaryLoads 2 2 1
Beam2d 3 nodes 2 4 5 mat 1 crossSect 1 
Beam2d 4 nodes 2 5 3 mat 1 crossSect 1 
Beam2d 5 nodes 2 3 6 mat 1 crossSect 1 
Beam2d 6 nodes 2 6 7 mat 1 crossSect 1 
SimpleCS 1 area 1.e6 Iy 0.002343466 beamShearCoeff 1.e18
IsoLE 1 d 1. E 25.e6 n 0.2 tAlpha 1.2e-5
BoundaryCondition  1 loadTimeFunction 1 prescribedvalue 0.0
ConstantEdgeLoad   2 loadTimeFunction 1 Components 3 0.0 2.5 0.0 loadType 3 ndofs 3
NodalLoad          3 loadTimeFunction 1 Components 3 20.0 00.0 0.0
NodalLoad          4 loadTimeFunction 1 Components 3 0.0 6.0 0.0
#StructTemperatureLoad 5 loadTimeFunction 3 Components 2 30.0 -20.0
ConstantFunction 1 f(t) 1.
#
# exact solution
#
#%BEGIN_CHECK% tolerance 1.e-8
## check reactions 
#REACTION tStep 1 number 1 dof 1 value -5.9328e+00
#REACTION tStep 1 number 1 dof 2 value -3.8155e+00
#REACTION tStep 1 number 1 dof 3 value  1.3722e+00
#REACTION tStep 1 number 4 dof 1 value -1.4067e+01
#REACTION tStep 1 number 4 dof 2 value -4.3155e+00
#REACTION tStep 1 number 4 dof 3 value  9.7967e+00
#REACTION tStep 1 number 7 dof 2 value -1.3689e+00 
##
## check all nodes
#NODE tStep 1 number 3 dof 3 unknown d value 1.15168659e-05
## check element no. 1 force vector
#BEAM_ELEMENT tStep 1 number 1  keyword "forces" component 1  value -5.9328e+00
#BEAM_ELEMENT tStep 1 number 1  keyword "forces" component 2  value -3.8155e+00
#BEAM_ELEMENT tStep 1 number 1  keyword "forces" component 3  value 1.3722e+00
#BEAM_ELEMENT tStep 1 number 1  keyword "forces" component 4  value 5.9328e+00
#BEAM_ELEMENT tStep 1 number 1  keyword "forces" component 5  value 2.0655e+00
#BEAM_ELEMENT tStep 1 number 1  keyword "forces" component 6  value 6.8612e-01
## element 5
#BEAM_ELEMENT tStep 1 number 5  keyword "forces" component 1  value 0.0
#BEAM_ELEMENT tStep 1 number 5  keyword "forces" component 2  value -4.6311e+00
#BEAM_ELEMENT tStep 1 number 5  keyword "forces" component 3  value 3.2621e+00
#BEAM_ELEMENT tStep 1 number 5  keyword "forces" component 4  value 0.0
#BEAM_ELEMENT tStep 1 number 5  keyword "forces" component 5  value 4.6311e+00
#BEAM_ELEMENT tStep 1 number 5  keyword "forces" component 6  value 1.3689e+00
#%END_CHECK%
