beam2d_3.out
Homework www sm40 no. 8
#only momentum influence to the displacements is taken into account
#beamShearCoeff is artificially enlarged.
LinearStatic nsteps 1 nmodules 1
errorcheck
domain 2dBeam
OutputManager tstep_all dofman_all element_all
ndofman 6 nelem 5 ncrosssect 1 nmat 1 nbc 6 nic 0 nltf 1 nset 6
node 1 coords 3 0.  0.0 4.7
node 2 coords 3 0.0 0.0 2.7
node 3 coords 3 0.0 0.0 0.
node 4 coords 3 1.0 0.0 0.
node 5 coords 3 3.6 0.0 0.
node 6 coords 3 3.6 0.0 4.7
Beam2d 1 nodes 2 1 2
Beam2d 2 nodes 2 2 3
Beam2d 3 nodes 2 3 4
Beam2d 4 nodes 2 4 5 DofsToCondense 1 6
Beam2d 5 nodes 2 5 6 DofsToCondense 1 3
SimpleCS 1 area 1.e3 Iy 0.0026244 beamShearCoeff 1.e18 material 1 set 1
IsoLE 1 d 1. E 25.e6 n 0.2 tAlpha 1.2e-5
BoundaryCondition  1 loadTimeFunction 1 dofs 3 1 3 5 values 3 0 0 0 set 3
BoundaryCondition  2 loadTimeFunction 1 dofs 1     5 values 1 0 set 5
BoundaryCondition  3 loadTimeFunction 1 dofs 3 1 3 5 values 3 0 0.005 0 set 6
ConstantEdgeLoad   4 loadTimeFunction 1 dofs 3 1 3 5 Components 3 0.0 5.0 0.0 loadType 3 csType 1 set 2
NodalLoad          5 loadTimeFunction 1 dofs 3 1 3 5 Components 3 0.0 10.0 0.0 set 4
NodalLoad          6 loadTimeFunction 1 dofs 3 1 3 5 Components 3 7.0 0.0 0.0 set 5
ConstantFunction 1 f(t) 1.
Set 1 elementranges {(1 5)}
Set 2 elementedges 4 1 1  2 1
Set 3 nodes 1 1
Set 4 nodes 1 4
Set 5 nodes 1 5
Set 6 nodes 1 6
#
# exact solution
#
#%BEGIN_CHECK% tolerance 1.e-5
## check reactions 
#REACTION tStep 1 number 1 dof 1 value -2.174224e+01
#REACTION tStep 1 number 1 dof 3 value -8.704485e+00
#REACTION tStep 1 number 1 dof 5 value  5.229966e+01
#REACTION tStep 1 number 5 dof 5 value  0.0
#REACTION tStep 1 number 6 dof 1 value -8.757762e+00
#REACTION tStep 1 number 6 dof 3 value -1.295515e+00
#REACTION tStep 1 number 6 dof 5 value  4.116148e+01
##
## check all nodes
#NODE tStep 1 number 3 dof 5 unknown d value  -1.40503831e-03
#NODE tStep 1 number 3 dof 1 unknown d value   4.61950515e-03
## check element no. 1 force vector
#BEAM_ELEMENT tStep 1 number 1 keyword 1 component 1  value 8.70448469 
#BEAM_ELEMENT tStep 1 number 1 keyword 1 component 2  value -1.67422378e+01 
#BEAM_ELEMENT tStep 1 number 1 keyword 1 component 3  value 5.0633e+01 
## element 5
#BEAM_ELEMENT tStep 1 number 5 keyword 1 component 1  value 1.29551531e+00 
#BEAM_ELEMENT tStep 1 number 5 keyword 1 component 2  value -8.75776225e+00 
#BEAM_ELEMENT tStep 1 number 5 keyword 1 component 3  value 0.0
#%END_CHECK%
