beam2d_2.out
Homework www sm40 no. 7
#only momentum influence to the displacements is taken into account
#beamShearCoeff is artificially enlarged.
LinearStatic nsteps 1 nmodules 1
errorcheck
domain 2dBeam
OutputManager tstep_all dofman_all element_all
ndofman 7 nelem 6 ncrosssect  1 nmat 1 nbc 4 nic 0 nltf 1
node 1 coords 3 0.  0.0 0.  bc 3 1 1 1
node 2 coords 3 0.7 0.0 0.  bc 3 0 0 0
node 3 coords 3 1.4 0.0 0.  bc 3 0 0 0
node 4 coords 3 1.4 0.0 3.2 bc 3 1 1 1 
node 5 coords 3 1.4 0.0 2.0 bc 3 0 0 0 load 1 3
node 6 coords 3 2.4 0.0 0.  bc 3 0 0 0 load 1 4
node 7 coords 3 3.4 0.0 0.  bc 3 0 1 0
Beam2d 1 nodes 2 1 2 mat 1 crossSect 1 boundaryLoads 2 2 1
Beam2d 2 nodes 2 2 3 mat 1 crossSect 1 boundaryLoads 2 2 1
Beam2d 3 nodes 2 4 5 mat 1 crossSect 1 
Beam2d 4 nodes 2 5 3 mat 1 crossSect 1 
Beam2d 5 nodes 2 3 6 mat 1 crossSect 1 
Beam2d 6 nodes 2 6 7 mat 1 crossSect 1 
SimpleCS 1 area 1.e6 Iy 0.002343466 beamShearCoeff 1.e18
IsoLE 1 d 1. E 25.e6 n 0.2 tAlpha 1.2e-5
BoundaryCondition  1 loadTimeFunction 1 prescribedvalue 0.0
ConstantEdgeLoad   2 loadTimeFunction 1 Components 3 0.0 2.5 0.0 loadType 3 ndofs 3
NodalLoad          3 loadTimeFunction 1 Components 3 20.0 00.0 0.0
NodalLoad          4 loadTimeFunction 1 Components 3 0.0 6.0 0.0
#StructTemperatureLoad 5 loadTimeFunction 3 Components 2 30.0 -20.0
ConstantFunction 1 f(t) 1.
#
# exact solution
#
#%BEGIN_CHECK% tolerance 1.e-8
## check reactions 
#REACTION tStep 1 number 1 dof 1 value -5.93277269e+00
#REACTION tStep 1 number 1 dof 3 value -3.81551420e+00
#REACTION tStep 1 number 1 dof 5 value  1.37223999e+00
#REACTION tStep 1 number 4 dof 1 value -1.40672273e+01
#REACTION tStep 1 number 4 dof 3 value -4.31553673e+00
#REACTION tStep 1 number 4 dof 5 value  9.79670913e+00
#REACTION tStep 1 number 7 dof 3 value -1.36894907e+00 
##
## check all nodes
#NODE tStep 1 number 3 dof 5 unknown d value 1.15168659e-05
## check element no. 1 force vector
#ELEMENT tStep 1 number 1 gp 1 keyword 7 component 1  value 5.93277269e+00
#ELEMENT tStep 1 number 1 gp 1 keyword 7 component 2  value -1.03817607e+00
#ELEMENT tStep 1 number 1 gp 1 keyword 7 component 3  value 2.05529371e+00
## element 5
#ELEMENT tStep 1 number 5 gp 1 keyword 7 component 1  value 0.0
#ELEMENT tStep 1 number 5 gp 1 keyword 7 component 2  value -2.74017471e+00
#ELEMENT tStep 1 number 5 gp 1 keyword 7 component 3  value 4.63105093e+00
#%END_CHECK%
