beam2d_2.out
Homework www sm40 no. 7
#only momentum influence to the displacements is taken into account
#beamShearCoeff is artificially enlarged.
LinearStatic nsteps 1 nmodules 1
errorcheck
domain 2dBeam
OutputManager tstep_all dofman_all element_all
ndofman 7 nelem 6 ncrosssect 1 nmat 1 nbc 5 nic 0 nltf 1 nset 6
node 1 coords 3 0.  0.0 0.
node 2 coords 3 0.7 0.0 0.
node 3 coords 3 1.4 0.0 0.
node 4 coords 3 1.4 0.0 3.2
node 5 coords 3 1.4 0.0 2.0
node 6 coords 3 2.4 0.0 0.
node 7 coords 3 3.4 0.0 0.
Beam2d 1 nodes 2 1 2
Beam2d 2 nodes 2 2 3
Beam2d 3 nodes 2 4 5
Beam2d 4 nodes 2 5 3
Beam2d 5 nodes 2 3 6
Beam2d 6 nodes 2 6 7
SimpleCS 1 area 1.e6 Iy 0.002343466 beamShearCoeff 1.e18 material 1 set 1
IsoLE 1 d 1. E 25.e6 n 0.2 tAlpha 1.2e-5
BoundaryCondition 1 loadTimeFunction 1 dofs 3 1 3 5 values 3 0.0 0.0 0.0 set 2
BoundaryCondition 2 loadTimeFunction 1 dofs 1 3 values 1 0.0 set 3
ConstantEdgeLoad 3 loadTimeFunction 1 Components 3 0.0 2.5 0.0 loadType 3 set 4
NodalLoad 4 loadTimeFunction 1 dofs 3 1 3 5 Components 3 20.0 00.0 0.0 set 5
NodalLoad 5 loadTimeFunction 1 dofs 3 1 3 5 Components 3 0.0 6.0 0.0 set 6
#StructTemperatureLoad 5 loadTimeFunction 3 Components 2 30.0 -20.0
ConstantFunction 1 f(t) 1.
Set 1 elementranges {(1 6)}
Set 2 nodes 2 1 4
Set 3 nodes 1 7
Set 4 elementedges 4 1 1  2 1
Set 5 nodes 1 5
Set 6 nodes 1 6
#
# exact solution
#
#%BEGIN_CHECK% tolerance 1.e-8
## check reactions 
#REACTION tStep 1 number 1 dof 1 value -5.93277269e+00
#REACTION tStep 1 number 1 dof 3 value -3.81551420e+00
#REACTION tStep 1 number 1 dof 5 value  1.37223999e+00
#REACTION tStep 1 number 4 dof 1 value -1.40672273e+01
#REACTION tStep 1 number 4 dof 3 value -4.31553673e+00
#REACTION tStep 1 number 4 dof 5 value  9.79670913e+00
#REACTION tStep 1 number 7 dof 3 value -1.36894907e+00 
##
## check all nodes
#NODE tStep 1 number 3 dof 5 unknown d value 1.15168659e-05
## check element no. 1 force vector
#BEAM_ELEMENT tStep 1 number 1 keyword 1 component 1  value -5.93277269 
#BEAM_ELEMENT tStep 1 number 1 keyword 1 component 2  value -2.94051420 
#BEAM_ELEMENT tStep 1 number 1 keyword 1 component 3  value 1.27015666 
#BEAM_ELEMENT tStep 1 number 1 keyword 1 component 4  value 5.93277269 
#BEAM_ELEMENT tStep 1 number 1 keyword 1 component 5  value 2.94051420 
#BEAM_ELEMENT tStep 1 number 1 keyword 1 component 6  value 7.88203280e-01 
#
#BEAM_ELEMENT tStep 1 number 5 keyword 1 component 1  value 0.0 
#BEAM_ELEMENT tStep 1 number 5 keyword 1 component 2  value -4.63105093 
#BEAM_ELEMENT tStep 1 number 5 keyword 1 component 3  value 3.26210186 
#BEAM_ELEMENT tStep 1 number 5 keyword 1 component 4  value 0.0 
#BEAM_ELEMENT tStep 1 number 5 keyword 1 component 5  value 4.63105093 
#BEAM_ELEMENT tStep 1 number 5 keyword 1 component 6  value 1.36894907 
#
#%END_CHECK%
