beam3d_3.out
Timoshenko Cantilever beam - test
StaticStructural nsteps 1 nmodules 1
errorcheck
domain 3dShell
OutputManager tstep_all dofman_all element_all
ndofman 3 nelem 1 ncrosssect 1 nmat 1 nbc 2 nic 0 nltf 1 nset 2
node 1 coords 3 0.  0.  0.
node 2 coords 3 2.5 0.  0.
node 3 coords 3 0.0 1.0 0.
#
Beam3d 1 nodes 2 1 2 crossSect 1 refNode 3
Set 1 nodes 1 1
Set 2 nodes 1 2
#
# beam cross section: 0.1 x 0.1
SimpleCS 1 area 0.01 Iy 0.000008333 Iz 0.000008333 Ik 0.003606447115384616 beamShearCoeff 0.83333333 material 1
IsoLE 1 d 1. E 1.0e6 n 0.15 tAlpha 1.2e-5
BoundaryCondition 1 loadTimeFunction 1 dofs 6 1 2 3 4 5 6 values 6 0. 0. 0. 0. 0. 0. set 1
NodalLoad 2 loadTimeFunction 1 dofs 6 1 2 3 4 5 6 components 6 0.0 1.0 1.0  0. 0. 0. set 2
PeakFunction 1 t 1.0 f(t) 1.
#
# exact solution
#
#%BEGIN_CHECK% tolerance 1.e-8
## check reactions 
#REACTION tStep 1 number 1 dof 1 value 0.0
#REACTION tStep 1 number 1 dof 2 value -1.0
#REACTION tStep 1 number 1 dof 3 value -1.0
#REACTION tStep 1 number 1 dof 4 value 0.0
#REACTION tStep 1 number 1 dof 5 value 2.5
#REACTION tStep 1 number 1 dof 6 value -2.5
###
#NODE tStep 1 number 2 dof 1 unknown d value 0.0
#NODE tStep 1 number 2 dof 2 unknown d value 6.25715001e-01
#NODE tStep 1 number 2 dof 3 unknown d value 6.25715001e-01
#NODE tStep 1 number 2 dof 4 unknown d value 0.0
#NODE tStep 1 number 2 dof 5 unknown d value -3.75015001e-01
#NODE tStep 1 number 2 dof 6 unknown d value 3.75015001e-01
#
#
#%END_CHECK%
