beam2d_4.out
Test of nodal coordinate system
#only momentum influence to the displacements is taken into account
#beamShearCoeff is artificially enlarged.
LinearStatic nsteps 1 nmodules 1
errorcheck
domain 2dBeam
OutputManager tstep_all dofman_all element_all
ndofman 4 nelem 3 ncrosssect 1 nmat 1 nbc 3 nic 0 nltf 1 nset 4
node 1 coords 3 0.  0.0 3.
node 2 coords 3 0.0 0.0 0.
node 3 coords 3 2.0 0.0 0.
node 4 coords 3 4.0 0.0 0. lcs 6 0.866025 0.0 -0.5  0.0 1.0 0.0
Beam2d 1 nodes 2 1 2
Beam2d 2 nodes 2 2 3
Beam2d 3 nodes 2 3 4
SimpleCS 1 area 1.e3 Iy 0.0026244 beamShearCoeff 1.e18 material 1 set 1
IsoLE 1 d 1. E 25.e6 n 0.2 tAlpha 1.2e-5
BoundaryCondition 1 loadTimeFunction 1 dofs 2 1 3 values 2 0.0 0.0 set 2
BoundaryCondition 2 loadTimeFunction 1 dofs 1 3 values 1 0.0 set 3
NodalLoad         3 loadTimeFunction 1 dofs 3 1 3 5 Components 3 0.0 10.0 0.0 set 4
ConstantFunction 1 f(t) 1.
Set 1 elementranges {(1 3)}
Set 2 nodes 1 1
Set 3 nodes 1 4
Set 4 nodes 1 3
#
# exact solution
#
#%BEGIN_CHECK% tolerance 1.e-8
## check reactions 
#REACTION tStep 1 number 1 dof 1 value 2.01446385e+00
#REACTION tStep 1 number 1 dof 3 value -6.51084789e+00
#REACTION tStep 1 number 4 dof 3 value -4.02892629e+00
##
## check all nodes
## check element no. 3 force vector
#BEAM_ELEMENT tStep 1 number 3 keyword 1 component 1  value 2.01446385 
#BEAM_ELEMENT tStep 1 number 3 keyword 1 component 2  value 3.48915211 
#BEAM_ELEMENT tStep 1 number 3 keyword 1 component 3  value -6.97830422
#%END_CHECK%
