beam3d_2.out
Test of nodal coordinate system
#only momentum influence to the displacements is taken into account
#beamShearCoeff is artificially enlarged.
LinearStatic nsteps 1 nmodules 1
errorcheck
domain 3dShell
OutputManager tstep_all dofman_all element_all
ndofman 4 nelem 3 ncrosssect 1 nmat 1 nbc 3 nic 0 nltf 1 nset 4
node 1 coords 3 0.  3.0 0.
node 2 coords 3 0.0 0.  0.
node 3 coords 3 2.0 0.  0.
node 4 coords 3 4.0 0.  0. lcs 6 0.866025 -0.5 0.0 0.5 0.866025 0.0
Beam3d 1 nodes 2 1 2 refNode 4
Beam3d 2 nodes 2 2 3 refNode 1
Beam3d 3 nodes 2 3 4 refNode 1
SimpleCS 1 area 0.1575 Iy 0.002657812 Iz 0.001607812 Ik 0.003606447115384616 beamShearCoeff 1.e30 material 1 set 1
IsoLE 1 d 1. E 25.e6 n 0.2 tAlpha 1.2e-5
BoundaryCondition  1 loadTimeFunction 1 dofs 5 1 2 3 4 5 values 5 0. 0. 0. 0. 0. set 2
BoundaryCondition  2 loadTimeFunction 1 dofs 4 2 3 4 5 values 4 0. 0. 0. 0. set 3
NodalLoad          3 loadTimeFunction 1 dofs 6 1 2 3 4 5 6 Components 6 0.0 10.0 0.0 0. 0. 0. set 4
ConstantFunction 1 f(t) 1.
Set 1 elementranges {(1 3)}
Set 2 nodes 1 1
Set 3 nodes 1 4
Set 4 nodes 1 3
#
# exact solution
#
#%BEGIN_CHECK% tolerance 1.e-8
## check reactions 
#REACTION tStep 1 number 1 dof 1 value 2.01446385e+00
#REACTION tStep 1 number 1 dof 2 value -6.51084789e+00
#REACTION tStep 1 number 4 dof 2 value -4.02892629e+00
##
## check all nodes
## check element no. 3 force vector
#BEAM_ELEMENT tStep 1 number 1  keyword 1 component 1  value 6.51084789 
#BEAM_ELEMENT tStep 1 number 1  keyword 1 component 2  value 2.01446385 
#BEAM_ELEMENT tStep 1 number 1  keyword 1 component 3  value 0.0
#BEAM_ELEMENT tStep 1 number 3  keyword 1 component 1  value 2.01446385 
#BEAM_ELEMENT tStep 1 number 3  keyword 1 component 2  value 3.48915211 
#BEAM_ELEMENT tStep 1 number 3  keyword 1 component 3  value 0.0
#%END_CHECK%
