beam3dsubsoil01.out
test
LinearStatic nsteps 1 nmodules 1
errorcheck
domain 3dShell
OutputManager tstep_all dofman_all element_all
ndofman 4 nelem 2 ncrosssect 2 nmat 2 nbc 2 nic 0 nltf 1 nset 3
node 1 coords 3 0.  0.  0.
node 2 coords 3 1800  0.  0. load 1 2
node 3 coords 3 3600 0. 0.
node 4 coords 3 3600 1.  0.
#
Beam3d 1 nodes 2 1 2 refNode 4 subsoilmat 2
Beam3d 2 nodes 2 2 3 refNode 4 subsoilmat 2
#Beam3dSubsoil 3 nodes 2 1 2 master 1 
#Beam3dSubsoil 4 nodes 2 2 3 master 2 
#
SimpleCS 1 area 80000 Iy 1066666666.6666665 Iz 266666666.66666663 Ik 160000000.0 beamShearCoeff 1.e30 material 1 set 1
SimpleCS 2 material 2 
IsoLE 1 d 1. E 2.e5 n 0.15 tAlpha 1.2e-5
winkler 2 d 0.0 c1 6 0 0 20. 0 0 0 global 1
BoundaryCondition 1 loadTimeFunction 1 dofs 4 1 2  4   6 values 4 0.  0. 0. 0. set 2
#ConstantEdgeLoad 2 loadTimeFunction 1 dofs 6 1 2 3 4 5 6 Components 6 0.0 0.0 20000000.0 0.0 0.0 0.0 loadType 3 set 3
NodalLoad 2 loadTimeFunction 1  Components 6 0.0 0.0 1.e5 0.0 0.0 0.0 
PeakFunction 1 t 1.0 f(t) 1.
Set 1 elementranges {(1 2)}
Set 2 nodes 3 1 2 3
Set 3 elementranges {(1 2)}
#
# exact solution
#
#%BEGIN_CHECK% tolerance 1.e-6
## check reactions 
#REACTION tStep 1 number 1 dof 1 value 0.0
#REACTION tStep 1 number 1 dof 2 value 0.0
#REACTION tStep 1 number 1 dof 4 value 0.0
#REACTION tStep 1 number 1 dof 6 value 0.0
#REACTION tStep 1 number 3 dof 1 value 0.0
#REACTION tStep 1 number 3 dof 2 value 0.0
#REACTION tStep 1 number 3 dof 4 value 0.0
#REACTION tStep 1 number 3 dof 6 value 0.0
##
## check all nodes
#NODE tStep 1 number 1 dof 3 unknown d value 1.28771568e+00
#NODE tStep 1 number 2 dof 3 unknown d value 1.45335141e+00
#NODE tStep 1 number 3 dof 3 unknown d value 1.28771568e+00
## check element no. 1 force vector
#BEAM_ELEMENT tStep 1 number 1 keyword 1 component 3  value 0. 
#BEAM_ELEMENT tStep 1 number 1 keyword 1 component 5  value 0. 
#BEAM_ELEMENT tStep 1 number 1 keyword 1 component 9  value 5.0000e+04
#BEAM_ELEMENT tStep 1 number 1 keyword 1 component 11 value 4.40456231e+07 tolerance 1.e-2
#BEAM_ELEMENT tStep 1 number 2 keyword 1 component 3  value 5.0000e+04
#BEAM_ELEMENT tStep 1 number 2 keyword 1 component 5  value -4.40456231e+07 tolerance 1.e-2
#BEAM_ELEMENT tStep 1 number 2 keyword 1 component 9  value 0.0
#BEAM_ELEMENT tStep 1 number 2 keyword 1 component 11 value 0.0 
#%END_CHECK%


