beam3d_1.out
Homework www sm40 no. 10
#only momentum influence to the displacements is taken into account
#beamShearCoeff is artificially enlarged.
LinearStatic nsteps 1 nmodules 1
errorcheck filename "beam3d_1.in"
domain 3dShell
OutputManager tstep_all dofman_all element_all
ndofman 5 nelem 4 ncrosssect  1 nmat 1 nbc 3 nic 0 nltf 1
node 1 coords 3 0.  4.  0. bc 6 0 0 0 0 0 0 load 1 3 
node 2 coords 3 0.6 4.  0. bc 6 0 0 0 0 0 0
node 3 coords 3 4.3 4.  0. bc 6 1 1 1 1 1 1 
node 4 coords 3 0.6 7.5 0. bc 6 1 1 1 1 1 1
node 5 coords 3 0.6 0.  0. bc 6 0 0 1 0 1 0
#
Beam3d 1 nodes 2 1 2 mat 1 crossSect 1 refNode 4
Beam3d 2 nodes 2 2 3 mat 1 crossSect 1 refNode 4
Beam3d 3 nodes 2 4 2 mat 1 crossSect 1 refNode 3 boundaryLoads 2 2 1 
Beam3d 4 nodes 2 2 5 mat 1 crossSect 1 refNode 3
#
SimpleCS 1 area 0.1575 Iy 0.002657812 Iz 0.001607812 Ik 0.003606447115384616 beamShearCoeff 1.e30
IsoLE 1 d 1. E 25.e6 n 0.15 tAlpha 1.2e-5
BoundaryCondition  1 loadTimeFunction 1 prescribedvalue 0.0
ConstantEdgeLoad 2 loadTimeFunction 1 Components 6 0.0 0.0 3.0 0.0 0.0 0.0 loadType 3 ndofs 6
NodalLoad 3 loadTimeFunction 1 Components 6 0.0 0.0 15.0  0. 0. 0.
PeakFunction 1 t 1.0 f(t) 1.
#
# exact solution
#
#%BEGIN_CHECK% tolerance 1.e-6
## check reactions 
#REACTION tStep 1 number 3 dof 1 value 0.0000e+00
#REACTION tStep 1 number 3 dof 2 value 0.0000e+00
#REACTION tStep 1 number 3 dof 3 value -3.069812e+00
#REACTION tStep 1 number 3 dof 4 value 1.154203e+00
#REACTION tStep 1 number 3 dof 5 value -1.24456148e+01
#REACTION tStep 1 number 3 dof 6 value 0.0
#REACTION tStep 1 number 4 dof 1 value 0.0
#REACTION tStep 1 number 4 dof 2 value 0.0
#REACTION tStep 1 number 4 dof 3 value -1.82944584e+01
#REACTION tStep 1 number 4 dof 4 value 2.79584829e+01
#REACTION tStep 1 number 4 dof 5 value -4.220101e+00
#REACTION tStep 1 number 4 dof 6 value 0.0
#REACTION tStep 1 number 5 dof 3 value -4.135730e+00
#REACTION tStep 1 number 5 dof 5 value -3.692588e+00
##
## check all nodes
#NODE tStep 1 number 2 dof 3 unknown d value 8.92077684e-04 tolerance 1e-10
#NODE tStep 1 number 2 dof 4 unknown d value -1.08941223e-04 tolerance 1e-10
#NODE tStep 1 number 2 dof 5 unknown d value 3.76789811e-04 tolerance 1e-10
## check element no. 1 force vector
#ELEMENT tStep 1 number 1 gp 1 keyword 7 component 1  value 0.
#ELEMENT tStep 1 number 1 gp 1 keyword 7 component 2  value 0.
#ELEMENT tStep 1 number 1 gp 1 keyword 7 component 3  value 5.71353601e+02
#ELEMENT tStep 1 number 1 gp 1 keyword 7 component 4  value 0.
#ELEMENT tStep 1 number 1 gp 1 keyword 7 component 5  value -1.01431499e+00
#ELEMENT tStep 1 number 1 gp 1 keyword 7 component 6  value 0.
##
#ELEMENT tStep 1 number 2 gp 1 keyword 7 component 1  value 0.
#ELEMENT tStep 1 number 2 gp 1 keyword 7 component 2  value 0.
#ELEMENT tStep 1 number 2 gp 1 keyword 7 component 3  value -1.10768752e+01
#ELEMENT tStep 1 number 2 gp 1 keyword 7 component 4  value 1.15420317e+00
#ELEMENT tStep 1 number 2 gp 1 keyword 7 component 5  value -2.36741040e+00
#ELEMENT tStep 1 number 2 gp 1 keyword 7 component 6  value 0.
##
#ELEMENT tStep 1 number 3 gp 1 keyword 7 component 1  value 0.
#ELEMENT tStep 1 number 3 gp 1 keyword 7 component 2  value 0.
#ELEMENT tStep 1 number 3 gp 1 keyword 7 component 3  value 1.55769245e+01
#ELEMENT tStep 1 number 3 gp 1 keyword 7 component 4  value -4.22010102e+00
#ELEMENT tStep 1 number 3 gp 1 keyword 7 component 5  value -1.97505202e+01
#ELEMENT tStep 1 number 3 gp 1 keyword 7 component 6  value 0.
##
#ELEMENT tStep 1 number 4 gp 1 keyword 7 component 1  value 0.
#ELEMENT tStep 1 number 4 gp 1 keyword 7 component 2  value 0.
#ELEMENT tStep 1 number 4 gp 1 keyword 7 component 3  value -9.36939060e+00
#ELEMENT tStep 1 number 4 gp 1 keyword 7 component 4  value 3.69258839e+00
#ELEMENT tStep 1 number 4 gp 1 keyword 7 component 5  value 1.46785040e+01
#ELEMENT tStep 1 number 4 gp 1 keyword 7 component 6  value 0.
##
##
#%END_CHECK%




