beam2d_1.out
Homework www sm40 no. 1
#only momentum influence to the displacements is taken into account
#beamShearCoeff is artificially enlarged.
LinearStatic nsteps 3 nmodules 1
errorcheck
domain 2dBeam
OutputManager tstep_all dofman_all element_all
ndofman 6 nelem 5 ncrosssect 1 nmat 1 nbc 6 nic 0 nltf 3 nset 6
node 1 coords 3 0.  0.  0.
node 2 coords 3 2.4 0.  0.
node 3 coords 3 3.8 0.  0.
node 4 coords 3 5.8 0.  1.5
node 5 coords 3 7.8 0.  3.0
node 6 coords 3 2.4 0.  3.0
Beam2d 1 nodes 2 1 2 bodyLoads 1 6
Beam2d 2 nodes 2 2 3 DofsToCondense 1 6  bodyLoads 1 6
Beam2d 3 nodes 2 3 4 DofsToCondense 1 3 
Beam2d 4 nodes 2 4 5
Beam2d 5 nodes 2 6 2 DofsToCondense 1 6 
SimpleCS 1 area 1.e8 Iy 0.0039366 beamShearCoeff 1.e18 thick 0.54 material 1 set 1
IsoLE 1 d 1. E 30.e6 n 0.2 tAlpha 1.2e-5
BoundaryCondition 1 loadTimeFunction 1 dofs 1 3 values 1 0.0 set 4
BoundaryCondition 2 loadTimeFunction 1 dofs 1 5 values 1 0.0 set 5
BoundaryCondition 3 loadTimeFunction 2 dofs 3 1 3 5 values 3 0.0 0.0 -0.006e-3 set 6
ConstantEdgeLoad 4 loadTimeFunction 1 Components 3 0.0 10.0 0.0 loadType 3 set 3
NodalLoad 5 loadTimeFunction 1 dofs 3 1 3 5 Components 3 -18.0 24.0 0.0 set 2
StructTemperatureLoad 6 loadTimeFunction 3 Components 2 30.0 -20.0
PeakFunction 1 t 1.0 f(t) 1.
PeakFunction 2 t 2.0 f(t) 1.
PeakFunction 3 t 3.0 f(t) 1.
Set 1 elementranges {(1 5)}
Set 2 nodes 1 4
Set 3 elementedges 2 1 1
Set 4 nodes 2 1 5
Set 5 nodes 1 3
Set 6 nodes 1 6
#
# exact solution
#
#%BEGIN_CHECK% tolerance 5.e-3
## check reactions 
#REACTION tStep 1 number 1 dof 3 value -8.9376e+00 tolerance 1.e-4
#REACTION tStep 1 number 3 dof 5 value 0.0000e+00 tolerance 1.e-4
#REACTION tStep 1 number 5 dof 3 value -1.8750e+01 tolerance 1.e-3
#REACTION tStep 1 number 6 dof 1 value 1.8000e+01 tolerance 1.e-3
#REACTION tStep 1 number 6 dof 3 value -2.0312e+01 tolerance 1.e-3
#REACTION tStep 1 number 6 dof 5 value -5.4002e+01 tolerance 5.e-3
##
## check all nodes
#NODE tStep 1 number 4 dof 1 unknown d value -1.75287942e-03
#NODE tStep 2 number 4 dof 1 unknown d value 1.79999937e-05
#NODE tStep 3 number 4 dof 1 unknown d value 9.47323653e-04
## check element no. 1 force vector
##ELEMENT tStep 1 number 1 gp 1 keyword 7 component 6  value -7.3498e+00 tolerance 1.e-2
##ELEMENT tStep 1 number 1 gp 1 keyword 7 component 5  value -1.5062e+01 tolerance 2.e-3
#%END_CHECK%



