Buckling02.out
Euler buckling of a 2D beam, hinges on both supports. Rectangular cross section 160/40 mm, length 4 m, bending around more compliant axis. Initial imperfection as a sine wave with the amplitude of 2 mm. The critical force of perfect beam is 210e+3*8.533e-07*pi^2/4^2=0.1105 MN (after 50 iteration here 0.1065 MN, relative error 4% neglecting initial deflection). The solution uses updated Lagrange me
StaticStructural nonlinform 2 nsteps 50 maxIter 50 rtolv 1e-4 manrmsteps 1 nmodules 1
errorcheck
#vtkxml tstep_all primvars 1 1 vars 1 7 stype 0
domain 3dBeam
OutputManager tstep_all dofman_all element_all
ndofman 17 nelem 16 ncrosssect 1 nmat 1 nbc 4 nic 0 nltf 2 nset 4
node 1 coords 3 0.000  0.    0.
node 2 coords 3 0.25   0.    0.0003
node 3 coords 3 0.50   0.    0.0007
node 4 coords 3 0.75   0.    0.0011
node 5 coords 3 1.00   0.    0.0013
node 6 coords 3 1.25   0.    0.0016
node 7 coords 3 1.50   0.    0.0017
node 8 coords 3 1.75   0.    0.0020
node 9 coords 3 2.0    0.    0.0020
node 10 coords 3 2.25  0.    0.0020
node 11 coords 3 2.50  0.    0.0017
node 12 coords 3 2.75  0.    0.0016
node 13 coords 3 3.00  0.    0.0013
node 14 coords 3 3.25  0.    0.0011
node 15 coords 3 3.50  0.    0.0007
node 16 coords 3 3.75  0.    0.0003
node 17 coords 3 4.00  0.    0.
Beam3D 1 nodes 2 1 2 yaxis 3 0. 1. 0.
Beam3D 2 nodes 2 2 3 yaxis 3 0. 1. 0. 
Beam3D 3 nodes 2 3 4 yaxis 3 0. 1. 0. 
Beam3D 4 nodes 2 4 5 yaxis 3 0. 1. 0. 
Beam3D 5 nodes 2 5 6 yaxis 3 0. 1. 0. 
Beam3D 6 nodes 2 6 7 yaxis 3 0. 1. 0. 
Beam3D 7 nodes 2 7 8 yaxis 3 0. 1. 0. 
Beam3D 8 nodes 2 8 9 yaxis 3 0. 1. 0. 
Beam3D 9 nodes 2 9 10 yaxis 3 0. 1. 0. 
Beam3D 10 nodes 2 10 11 yaxis 3 0. 1. 0. 
Beam3D 11 nodes 2 11 12 yaxis 3 0. 1. 0. 
Beam3D 12 nodes 2 12 13 yaxis 3 0. 1. 0. 
Beam3D 13 nodes 2 13 14 yaxis 3 0. 1. 0. 
Beam3D 14 nodes 2 14 15 yaxis 3 0. 1. 0. 
Beam3D 15 nodes 2 15 16 yaxis 3 0. 1. 0. 
Beam3D 16 nodes 2 16 17 yaxis 3 0. 1. 0. 
SimpleCS 1 area 0.0064 Iy 8.533e-07 Iz 1.e-8 Ik 1.e-8 beamShearCoeff 1.0 material 1 set 1
IsoLE 1 d 1.0 E 210e+3 n 0.2 tAlpha 12e-6
#Restrain y-displacement, x-rotation, z-rotation on all nodes
BoundaryCondition  1 loadTimeFunction 1 dofs 3 2 4 6 values 3 0. 0. 0. set 2
#Bottom node - hinge
BoundaryCondition  2 loadTimeFunction 1 dofs 2 1 3 values 2 0. 0. set 3
#Top node - fixed horizontal displacement
BoundaryCondition  3 loadTimeFunction 1 dofs 1 3 values 1 0 set 4
#Vertical displacement of top node
BoundaryCondition  4 loadTimeFunction 2 dofs 1 1 values 1 -40.e-6 set 4
ConstantFunction 1 f(t) 1.
PiecewiseLinFunction 2 nPoints 2 t 2 1.0 201.0 f(t) 2 0.0 200.
Set 1 elementranges {(1 16)}
Set 2 noderanges {(1 17)}
Set 3 nodes 1 1
Set 4 nodes 1 17
#
#%BEGIN_CHECK%
##
#TIME
#NODE tStep 50 number 17 dof 1 unknown d value -1.960000e-03
#NODE tStep 50 number 9 dof 3 unknown d value 3.581400e-02
#REACTION tStep 50 number 1 dof 1 value 1.06453645e-01
#%END_CHECK%
