cantilever_Qspace.out
Cantilever 'beam' test from 3 Qspace elements
StaticStructural nsteps 3 nmodules 1
errorcheck
#vtkxml tstep_all domain_all primvars 1 1 vars 2 1 4 stype 2
domain 3d
OutputManager tstep_all dofman_all element_all
ndofman 44 nelem 3 ncrosssect 1 nmat 1 nbc 2 nic 0 nltf 2 nset 3
node 1 coords 3   0.000000 0.000000 0.000000
node 2 coords 3   0.000000 2.000000 0.000000
node 3 coords 3   4.000000 0.000000 0.000000
node 4 coords 3   4.000000 2.000000 0.000000
node 5 coords 3   8.000000 0.000000 -0.000000
node 6 coords 3   8.000000 2.000000 -0.000000
node 7 coords 3   12.000000 0.000000 -0.000000
node 8 coords 3   12.000000 2.000000 -0.000000
node 9 coords 3   0.000000 0.000000 1.200000
node 10 coords 3   0.000000 2.000000 1.200000
node 11 coords 3   4.000000 0.000000 1.200000
node 12 coords 3   4.000000 2.000000 1.200000
node 13 coords 3   8.000000 0.000000 1.200000
node 14 coords 3   8.000000 2.000000 1.200000
node 15 coords 3   12.000000 0.000000 1.200000
node 16 coords 3   12.000000 2.000000 1.200000
node 17 coords 3   0.000000 0.000000 0.600000
node 18 coords 3   0.000000 2.000000 0.600000
node 19 coords 3   4.000000 0.000000 0.600000
node 20 coords 3   4.000000 2.000000 0.600000
# ... 24 like lines cut
Qspace 1 nodes 20    1  3  4  2  9  11  12  10  33  26  34  25  39  30  40  29  17  19  20  18
Qspace 2 nodes 20    3  5  6  4  11  13  14  12  35  27  36  26  41  31  42  30  19  21  22  20
Qspace 3 nodes 20    5  7  8  6  13  15  16  14  37  28  38  27  43  32  44  31  21  23  24  22
simplecs 1 material 1 set 1
IsoLE 1 d 0.0 E 10.0 n 0.0 tAlpha 0.000012
boundarycondition 1 loadtimefunction 1 dofs 3 1 2 3 values 3 0.0 0.0 0.0 set 2
boundarycondition 2 loadtimefunction 2 dofs 1 3 values 1 1.0 set 3
constantfunction 1 f(t) 1.0
PiecewiseLinFunction 2 t 2 1.0 101.0 f(t) 2 0.0 100.0
Set 1 elementranges {(1 3)}
Set 2 nodes 8 1 2 9 10 17 18 25 29
Set 3 nodes 8 7 8 15 16 23 24 28 32
#
#
#%BEGIN_CHECK% tolerance 1.e-8
## check reactions
#REACTION tStep 1 number 29 dof 1 value 0.00000e-02
#REACTION tStep 2 number 29 dof 1 value 3.365711e-02
#REACTION tStep 3 number 29 dof 1 value 6.731422e-02
## check horizontal displacement at the end
#NODE tStep 1 number 28 dof 1 unknown d value 0.00000e-02
#NODE tStep 2 number 28 dof 1 unknown d value 7.57284993e-02
#NODE tStep 3 number 28 dof 1 unknown d value 1.51456999e-01
## check element no. 3 strain vector
#ELEMENT tStep 1 number 3 gp 1 keyword 4 component 1  value 0.00000e-02
#ELEMENT tStep 2 number 3 gp 1 keyword 4 component 1  value -2.227274e-03
#ELEMENT tStep 3 number 3 gp 1 keyword 4 component 1  value -4.454549e-03
## check element no. 3 stress vector
#ELEMENT tStep 1 number 3 gp 1 keyword 1 component 1  value 0.00000e-02
#ELEMENT tStep 2 number 3 gp 1 keyword 1 component 1  value -2.227274e-02
#ELEMENT tStep 3 number 3 gp 1 keyword 1 component 1  value -4.454549e-02
#%END_CHECK%
