control_switch_1.out
Test of nonproportional loading and solution control load switching
# rectangular specimen
#
# 4------------------3
# |                  |
# 1------------------2
#
# time 0 - loaded in x direction under indirect control, controlled displacements of nodes 2,3
# time 1 - unloaded in x direction under direct displacement control
# time 2 - loaded in y direction (loaded nodes 3 4) with direct control
# time 3 - unloaded in y direction with indirect control
# result - the return to original unloaded state
#
NonLinearStatic nsteps 4 nmsteps 4 nmodules 1
nsteps 1 controlmode 0 stepLength 2.5 rtolf 1e-4 MaxIter 2000 Psi 0. reqIterations 80 HPC 2 2 1 refloadmode 0
nsteps 1 controlmode 1 rtolf 1e-4 MaxIter 2000 stiffmode 1 ddm 4 2 1 3 1 ddv 2 -2.5 -2.5 ddltf 3 refloadmode 0
nsteps 1 controlmode 1 rtolf 1e-4 MaxIter 2000 stiffmode 1 refloadmode 0
nsteps 1 controlmode 0 stepLength 6.66666740e-01 rtolf 1e-4 MaxIter 2000 stiffmode 1 Psi 0. HPC 2 3 2  refloadmode 0
errorcheck
domain 2dPlaneStress
OutputManager tstep_all dofman_all element_all
ndofman 4 nelem 1 ncrosssect 1 nmat 1 nbc 5 nic 0 nltf 5 nset 5
Node 1 coords 3  0.0   0.0   0.0
Node 2 coords 3  4.0   0.0   0.0
Node 3 coords 3  4.0   3.0   0.0
Node 4 coords 3  0.0   3.0   0.0
PlaneStress2d 1 nodes 4 1 2 3 4
SimpleCS 1 thick 0.15 material 1 set 1
IsoLE 1  tAlpha 0.000012  d 1.0  E 15.0  n 0.25
BoundaryCondition  1 loadTimeFunction 1 dofs 1 1 values 1 0.0 set 4
BoundaryCondition  2 loadTimeFunction 1 dofs 1 2 values 1 0.0 set 5
NodalLoad 3 loadTimeFunction 2 dofs 2 1 2 Components 2 2.0 0.0 set 2
NodalLoad 4 loadTimeFunction 4 dofs 2 1 2 Components 2 0.0 1.0 set 3
NodalLoad 5 loadTimeFunction 5 dofs 2 1 2 Components 2 0.0 -1.0 set 3
ConstantFunction 1 f(t) 1.0
PeakFunction 2 t 0.0 f(t) 1.0
PeakFunction 3 t 1.0 f(t) 1.0
PeakFunction 4 t 2.0 f(t) 1.0
PeakFunction 5 t 3.0 f(t) 1.0
Set 1 elementranges {1}
Set 2 nodes 2 2 3
Set 3 nodes 2 3 4
Set 4 nodes 2 1 4
Set 5 nodes 2 1 2
#
#
#%BEGIN_CHECK% tolerance 2.e-6
## check reactions
#REACTION tStep 4 number 1 dof 1 value 0.0
#REACTION tStep 4 number 1 dof 2 value 0.0
#REACTION tStep 4 number 2 dof 2 value 0.0
#REACTION tStep 4 number 4 dof 1 value 0.0
## check all nodes
#NODE tStep 4 number 1 dof 1 unknown d value 0.0
#NODE tStep 4 number 1 dof 2 unknown d value 0.0
#NODE tStep 4 number 2 dof 1 unknown d value 0.0
#NODE tStep 4 number 2 dof 2 unknown d value 0.0
#NODE tStep 4 number 3 dof 1 unknown d value 0.0
#NODE tStep 4 number 3 dof 2 unknown d value 0.0
#NODE tStep 4 number 4 dof 1 unknown d value 0.0
#NODE tStep 4 number 4 dof 2 unknown d value 0.0
##
## check element strain vector
#ELEMENT tStep 4 number 1 gp 1 keyword 4 component 1  value 0.0
#ELEMENT tStep 4 number 1 gp 1 keyword 4 component 2  value 0.
#ELEMENT tStep 4 number 1 gp 1 keyword 4 component 6  value 0.0
## check element stress vector
#ELEMENT tStep 4 number 1 gp 1 keyword 1 component 1  value 0.0
#ELEMENT tStep 4 number 1 gp 1 keyword 1 component 2  value 0.
#ELEMENT tStep 4 number 1 gp 1 keyword 1 component 6  value 0.0
##
#%END_CHECK%
