deactivate_1.out
Patch test of Truss2d elements -> simple structure with activated and deactivated element L
IncrLinearStatic endOfTimeOfInterest 5.0 prescribedTimes 5 0.0 1.0 2.0 3.0 4.0  nmodules 1
errorcheck
domain 2dTruss
OutputManager tstep_all dofman_all element_all
ndofman 4 nelem 3 ncrosssect 1 nmat 1 nbc 3 nic 0 nltf 3 nset 3
node 1 coords 3 0.  0.  0.
node 2 coords 3 0.  0.  1.
node 3 coords 3 0.  0.  2.
node 4 coords 3 0.  0.  3.
Truss2d 1 nodes 2 1 2
Truss2d 2 nodes 2 2 3 activityltf 3
Truss2d 3 nodes 2 3 4
SimpleCS 1 thick 0.1 width 1.0 material 1 set 1
IsoLE 1 d 1. E 10.0 n 0.2  tAlpha 0.000012
BoundaryCondition  1 loadTimeFunction 1 dofs 1 1 values 1 0.0 set 1
BoundaryCondition  2 loadTimeFunction 1 dofs 1 3 values 1 0.0 set 3
NodalLoad 3 loadTimeFunction 2 dofs 2 1 3 Components 2 0.0 1.0 set 2
ConstantFunction 1 f(t) 1.0
PiecewiseLinFunction 2 t 5 0.0 1.0 2.0 3.0 4.0 f(t) 5 0.0 1.0 1.0 2.0 2.0
PiecewiseLinFunction 3 t 5 0.0 1.0 2.0 3.0 4.0 f(t) 5 1.0 0.0 1.0 1.0 0.0
Set 1 elementranges {(1 3)}
Set 2 nodes 1 2
Set 3 nodes 2 1 4
#
#
#%BEGIN_CHECK% tolerance 1.e-4
## check nodal displacements
#NODE tStep 1 number 2 dof 3 unknown d value 0.0
#NODE tStep 1 number 3 dof 3 unknown d value 0.0
#NODE tStep 2 number 2 dof 3 unknown d value 1.0
#NODE tStep 2 number 3 dof 3 unknown d value 0.0
#NODE tStep 3 number 2 dof 3 unknown d value 1.0
#NODE tStep 3 number 3 dof 3 unknown d value 0.0
#NODE tStep 4 number 2 dof 3 unknown d value 1.666666666667
#NODE tStep 4 number 3 dof 3 unknown d value 0.333333333334
#NODE tStep 5 number 2 dof 3 unknown d value 2.0
#NODE tStep 5 number 3 dof 3 unknown d value 0.0
## element stresses and strains
#ELEMENT tStep 1 number 1 gp 1 keyword 4 component 1  value 0.0
#ELEMENT tStep 1 number 2 gp 1 keyword 4 component 1  value 0.0
#ELEMENT tStep 1 number 3 gp 1 keyword 4 component 1  value 0.0
## check element stress vector
#ELEMENT tStep 2 number 1 gp 1 keyword 4 component 1  value 1.
#ELEMENT tStep 2 number 2 gp 1 keyword 4 component 1  value 0.0
#ELEMENT tStep 2 number 3 gp 1 keyword 4 component 1  value 0.0
#ELEMENT tStep 2 number 1 gp 1 keyword 1 component 1  value 10.
#ELEMENT tStep 2 number 2 gp 1 keyword 1 component 1  value 0.0
#ELEMENT tStep 2 number 3 gp 1 keyword 1 component 1  value 0.0
##
#ELEMENT tStep 3 number 1 gp 1 keyword 4 component 1  value 1.
#ELEMENT tStep 3 number 2 gp 1 keyword 4 component 1  value 0.0
#ELEMENT tStep 3 number 3 gp 1 keyword 4 component 1  value 0.0
#ELEMENT tStep 3 number 1 gp 1 keyword 1 component 1  value 10.
#ELEMENT tStep 3 number 2 gp 1 keyword 1 component 1  value 0.0
#ELEMENT tStep 3 number 3 gp 1 keyword 1 component 1  value 0.0
##
#ELEMENT tStep 4 number 1 gp 1 keyword 4 component 1  value 1.666666667
#ELEMENT tStep 4 number 2 gp 1 keyword 4 component 1  value -0.333333334
#ELEMENT tStep 4 number 3 gp 1 keyword 4 component 1  value -0.333333334
#ELEMENT tStep 4 number 1 gp 1 keyword 1 component 1  value 16.66666667
#ELEMENT tStep 4 number 2 gp 1 keyword 1 component 1  value -3.3333333334
#ELEMENT tStep 4 number 3 gp 1 keyword 1 component 1  value -3.3333333334
##
#ELEMENT tStep 5 number 1 gp 1 keyword 4 component 1  value 2.
#ELEMENT tStep 5 number 2 gp 1 keyword 4 component 1  value 0.0
#ELEMENT tStep 5 number 3 gp 1 keyword 4 component 1  value 0.0
#ELEMENT tStep 5 number 1 gp 1 keyword 1 component 1  value 20.
#ELEMENT tStep 5 number 2 gp 1 keyword 1 component 1  value 0.0
#ELEMENT tStep 5 number 3 gp 1 keyword 1 component 1  value 0.0
#%END_CHECK%
