deadweight01.out
Test of deadweight on quadratic QPlaneStress2d element
#The analytical solution (x is the coordinate from the right edge oriented leftwards) reads:
#F(x) = 2x
#sigma(x)=10x
#epsilon(x)=0.1x
#displacement_x(x)=0.05x^2-0.8
LinearStatic nsteps 1 nmodules 1
errorcheck
#vtkxml tstep_all domain_all primvars 1 1 vars 2 4 1 stype 1
domain 2dPlaneStress
OutputManager tstep_all dofman_all element_all
ndofman 8 nelem 1 ncrosssect 1 nmat 1 nbc 3 nic 0 nltf 1 nset 3
node 1 coords 3  0.0   0.0   0.0
node 2 coords 3  4.0   0.0   0.0
node 3 coords 3  4.0   1.0   0.0
node 4 coords 3  0.0   1.0   0.0
node 5 coords 3  2.0   0.0   0.0 
node 6 coords 3  4.0   0.5   0.0
node 7 coords 3  2.0   1.0   0.0 
node 8 coords 3  0.0   0.5   0.0
QPlaneStress2d 1 nodes 8 1 2 3 4 5 6 7 8 NIP 9
SimpleCS 1 thick 0.2 material 1 set 1
IsoLE 1 d 1. E 100.0 n 0.01  tAlpha 0.000012
BoundaryCondition  1 loadTimeFunction 1 dofs 1 1 values 1 0.0 set 2
BoundaryCondition  2 loadTimeFunction 1 dofs 1 2 values 1 0.0 set 3
DeadWeight 3 loadTimeFunction 1 Components 2 10. 0. set 1
ConstantFunction 1 f(t) 1.0
Set 1 elementranges {1}
Set 2 nodes 3 1 4 8
Set 3 nodes 2 6 8
#
#%BEGIN_CHECK% tolerance 1.e-3
## check reactions 
#REACTION tStep 1 number 1 dof 1 value -1.3303e+00
#REACTION tStep 1 number 4 dof 1 value -1.3303e+00
#REACTION tStep 1 number 8 dof 1 value -5.3393e+00
## check displacements in right nodes
#NODE tStep 1 number 2 dof 1 unknown d value 7.99872412e-01
#NODE tStep 1 number 3 dof 1 unknown d value 7.99872412e-01
#NODE tStep 1 number 4 dof 2 unknown d value -1.95877842e-03
#NODE tStep 1 number 6 dof 1 unknown d value 8.00063794e-01
## check element No. 1 strain vector
#ELEMENT tStep 1 number 1 gp 1 keyword 4 component 1  value 4.5068e-02
#ELEMENT tStep 1 number 1 gp 4 keyword 4 component 1  value 1.9999e-01
#ELEMENT tStep 1 number 1 gp 7 keyword 4 component 1  value 3.5491e-01
## check element No. 1 stress vector
#ELEMENT tStep 1 number 1 gp 1 keyword 1 component 1  value 4.5068e+00 
#ELEMENT tStep 1 number 1 gp 4 keyword 1 component 1  value 1.9999e+01
#ELEMENT tStep 1 number 1 gp 7 keyword 1 component 1  value 3.5491e+01
##
#%END_CHECK%
