deadweight02.out
Test of deadweight on LSpace element
#The analytical solution (x is the coordinate from the top) for the second step reads:
#F(x) = -20x
#sigma(x)=-20x
#epsilon(x)=0.2x
#displacement_x(x)=0.1x^2-0.4
nonlinearstatic nsteps 1 rtolv 1.e-3 MaxIter 30 controllmode 1 stiffMode 2 nmodules 1
errorcheck
#vtkxml tstep_all domain_all cellvars 1 53 primvars 1 1 vars 2 4 1 stype 1
domain 3d
OutputManager tstep_all dofman_all element_all
ndofman 8 nelem 1 ncrosssect 1 nmat 1 nbc 4 nic 0 nltf 1 nset 4
node 1 coords 3 0.000 0.000 2.000
node 2 coords 3 0.000 2.000 2.000
node 3 coords 3 2.000 2.000 2.000
node 4 coords 3 2.000 0.000 2.000
node 5 coords 3 0.000 0.000 0.000
node 6 coords 3 0.000 2.000 0.000
node 7 coords 3 2.000 2.000 0.000
node 8 coords 3 2.000 0.000 0.000
lspace 1 nodes 8 1 2 3 4 5 6 7 8 crossSect 1
SimpleCS 1 material 1 set 4
IsoLE 1 d 2. E 100.0 n 0.01  tAlpha 0.000012
BoundaryCondition 1 loadTimeFunction 1 dofs 1 1 values 1 0 set 1
BoundaryCondition 2 loadTimeFunction 1 dofs 1 2 values 1 0 set 2
BoundaryCondition 3 loadTimeFunction 1 dofs 1 3 values 1 0 set 3
DeadWeight 4 loadTimeFunction 1 Components 3 0. 0. -10. set 4
ConstantFunction 1 f(t) 1.0
Set 1 nodes 1 5
Set 2 nodes 2 5 8
Set 3 nodes 4 5 6 7 8
Set 4 elementranges {1}
#
#%BEGIN_CHECK% tolerance 1.e-3
## check reactions 
#REACTION tStep 5 number 1 dof 1 value -1.3303e+00
## check displacements in top nodes
#NODE tStep 1 number 1 dof 3 unknown d value -4.00000000e-01
#NODE tStep 1 number 2 dof 3 unknown d value -4.00000000e-01
#NODE tStep 1 number 3 dof 3 unknown d value -4.00000000e-01
#NODE tStep 1 number 4 dof 3 unknown d value -4.00000000e-01
## check element No. 1 strain vector
#ELEMENT tStep 1 number 1 gp 1 keyword 4 component 1  value 2.0000e-03
#ELEMENT tStep 1 number 1 gp 1 keyword 4 component 2  value 2.0000e-03
#ELEMENT tStep 1 number 1 gp 1 keyword 4 component 3  value -2.0000e-01
## check element No. 1 stress vector
#ELEMENT tStep 1 number 1 gp 1 keyword 1 component 3  value -2.0000e+01
##
#%END_CHECK%
