deadweight03.out
Test of vertical deadweight on linear triagles
StaticStructural nsteps 1 nmodules 1
errorcheck
#vtkxml tstep_all domain_all primvars 1 1 vars 2 4 1 stype 1
domain 2dPlaneStress
OutputManager tstep_all dofman_all element_all
ndofman 4 nelem 2 ncrosssect 1 nmat 1 nbc 3 nic 0 nltf 1 nset 3
node 1 coords 3  0.0   0.0   0.0
node 2 coords 3  4.0   0.0   0.0
node 3 coords 3  4.0   1.0   0.0
node 4 coords 3  0.0   1.0   0.0
TrPlaneStress2d 1 nodes 3 1 2 3
TrPlaneStress2d 2 nodes 3 1 3 4
SimpleCS 1 thick 0.2 material 1 set 1
IsoLE 1 d 1. E 100.0 n 0.1  tAlpha 0.000012
BoundaryCondition  1 loadTimeFunction 1 dofs 1 1 values 1 0.0 set 2
BoundaryCondition  2 loadTimeFunction 1 dofs 1 2 values 1 0.0 set 3
DeadWeight 3 loadTimeFunction 1 Components 2 0. -10. set 1
ConstantFunction 1 f(t) 1.0
Set 1 elements 2 1 2
Set 2 nodes 1 1
Set 3 nodes 2 1 2
#
#%BEGIN_CHECK% tolerance 1.e-3
## check reactions 
#REACTION tStep 1 number 1 dof 2 value 4.0000e+00
#REACTION tStep 1 number 2 dof 2 value 4.0000e+00
## check displacements of top nodes
#NODE tStep 1 number 3 dof 2 unknown d value -6.66459054e-02
#NODE tStep 1 number 4 dof 2 unknown d value -3.33540946e-02
## check element No. 1 strain vector
#ELEMENT tStep 1 number 1 gp 1 keyword 4 component 2  value -6.66459054e-02
#ELEMENT tStep 1 number 2 gp 1 keyword 4 component 2  value -3.33540946e-02
## check element No. 1 stress vector
#ELEMENT tStep 1 number 1 gp 1 keyword 1 component 2  value -6.6701e+00
#ELEMENT tStep 1 number 2 gp 1 keyword 1 component 2  value -3.3299e+00
##
#%END_CHECK%
