deadweight01.out
Test of deadweight on quadratic QPlaneStress2d element
#The analytical solution (x is the coordinate from the right edge oriented leftwards) reads:
#F(x) = 2x
#sigma(x)=10x
#epsilon(x)=0.1x
#displacement_x(x)=0.05x^2-0.8
LinearStatic nsteps 1 nmodules 0
#vtkxml tstep_all domain_all primvars 1 1 vars 2 4 1 stype 1
domain 2dPlaneStress
OutputManager tstep_all dofman_all element_all
ndofman 8 nelem 1 ncrosssect  1 nmat 1 nbc 2 nic 0 nltf 1
node 1 coords 3  0.0   0.0   0.0  bc 2 1 0
node 2 coords 3  4.0   0.0   0.0
node 3 coords 3  4.0   1.0   0.0  
node 4 coords 3  0.0   1.0   0.0  bc 2 1 0
node 5 coords 3  2.0   0.0   0.0 
node 6 coords 3  4.0   0.5   0.0  bc 2 0 1
node 7 coords 3  2.0   1.0   0.0 
node 8 coords 3  0.0   0.5   0.0  bc 2 1 1
QPlaneStress2d 1 nodes 8 1 2 3 4 5 6 7 8 crossSect 1 mat 1 NIP 9 bodyloads 1 2
SimpleCS 1 thick 0.2
IsoLE 1 d 1. E 100.0 n 0.01  tAlpha 0.000012
BoundaryCondition  1 loadTimeFunction 1 prescribedvalue 0.0 
DeadWeight 2 loadTimeFunction 1 Components 2 10. 0.
ConstantFunction 1 f(t) 1.0
#
#%BEGIN_CHECK% tolerance 1.e-3
## check reactions 
#REACTION tStep 1 number 1 dof 1 value -1.3303e+00
#REACTION tStep 1 number 4 dof 1 value -1.3303e+00
#REACTION tStep 1 number 8 dof 1 value -5.3393e+00
## check displacements in right nodes
#NODE tStep 1 number 2 dof 1 unknown d value 7.99872412e-01
#NODE tStep 1 number 3 dof 1 unknown d value 7.99872412e-01
#NODE tStep 1 number 4 dof 2 unknown d value -1.95877842e-03
#NODE tStep 1 number 6 dof 1 unknown d value 8.00063794e-01
## check element No. 1 strain vector
#ELEMENT tStep 1 number 1 gp 1 keyword "strains" component 1  value 4.5068e-02
#ELEMENT tStep 1 number 1 gp 4 keyword "strains" component 1  value 1.9999e-01
#ELEMENT tStep 1 number 1 gp 7 keyword "strains" component 1  value 3.5491e-01
## check element No. 1 stress vector
#ELEMENT tStep 1 number 1 gp 1 keyword "stresses" component 1  value 4.5068e+00 
#ELEMENT tStep 1 number 1 gp 4 keyword "stresses" component 1  value 1.9999e+01
#ELEMENT tStep 1 number 1 gp 7 keyword "stresses" component 1  value 3.5491e+01
##
#%END_CHECK%
