dkt_bending01.out
"Patch test of DKT elements -> pure bending of a square clamped plate"
LinearStatic nsteps 2 nmodules 1
errorcheck
domain 2dMindlinPlate
OutputManager tstep_all dofman_all element_all
ndofman 4 nelem 2 ncrosssect 1 nmat 1 nbc 3 nic 0 nltf 3 nset 4
node 1 coords 3  0.0  0.0  0.0
node 2 coords 3  8.0  0.0  0.0
node 3 coords 3  8.0  8.0  0.0
node 4 coords 3  0.0  8.0  0.0
DKTPlate 1 nodes 3  1 2 3
DKTPlate 2 nodes 3  3 4 1 boundaryLoads 2 3 1
SimpleCS 1 thick 1.0 material 1 set 1
IsoLE 1 d 2500.  E 10000.0  n 0.3 tAlpha 0.000012
BoundaryCondition  1 loadTimeFunction 1 dofs 2 3 4 values 2 0 0 set 3
nodalLoad 2 loadTimeFunction 2 dofs 3 3 4 5 Components 3 0.0 12.0 0.0 set 2
ConstantEdgeLoad 3 loadTimeFunction 3 dofs 3 3 4 5 Components 3 0.0 3.0 0.0 set 0
ConstantFunction 1 f(t) 1.0
PeakFunction 2 t 1.0 f(t) 1.0
PeakFunction 3 t 2.0 f(t) 1.0
Set 1 elementranges {(1 2)}
Set 2 nodes 2 3 4
Set 3 nodes 2 1 2
# TODO: Should we have an edge or surface set here?
Set 4 elementboundaries 2 2 1
#
#  exact solution
#
#  DISPLACEMENT             w     
#
#  node 3                   0.2496
#
#         STRAIN                     STRESS
#
#   kapa_x  =  1.0800e-03             m_x  =  0.0
#   kapa_y  = -3.6000e-03             m_y  = -3.0
#   kapa_xy =  0.0                    m_xy =  0.0
#   gama_xz =  0.0                    q_x  =  0.0
#   gama_yz =  0.0                    q_y  =  0.0
#
#
#
#%BEGIN_CHECK% tolerance 1.e-4
## check reactions 
## check element no. 1 stress vector
#ELEMENT tStep 1 number 1 gp 1 keyword 1 component 4  value 0.0
#ELEMENT tStep 1 number 1 gp 1 keyword 1 component 5  value -3.0
#ELEMENT tStep 1 number 1 gp 1 keyword 1 component 6  value 0.0
##
#ELEMENT tStep 1 number 2 gp 1 keyword 1 component 4  value 0.0
#ELEMENT tStep 1 number 2 gp 1 keyword 1 component 5  value -3.0
#ELEMENT tStep 1 number 2 gp 1 keyword 1 component 6  value 0.0
##
#%END_CHECK%
#
#
