EC2creep_casting.out
# 
Test on material casting. Before casting time the material is characterized by properties of "preCastingTimeMaterial"
#
StaticStructural nsteps 40 prescribedTimes 40 0.0001 0.0002 0.0005 0.001 0.002 0.005 0.01 0.02 0.05 0.1 0.2 0.5 1. 2. 5. 10. 10.0001 10.0002 10.0005 10.001 10.002 10.005 10.01 10.02 10.05 10.1 10.2 10.5 11. 12. 15. 20. 50. 100. 200. 500. 1000. 2000. 5000. 10000. nmodules 1 miniter 1 maxiter 1
#
errorcheck
# vtkxml tstep_step 1 domain_all vars 2 1 4 primvars 1 1 
#
domain 2dPlaneStress
#
OutputManager tstep_all dofman_all element_all
ndofman 4 nelem 1 ncrosssect 1 nmat 2 nbc 4 nic 0 nltf 2 nset 3
#
#
# NODES
#
node   1   coords 3  0.0  0.0  0.0
node   2   coords 3  0.1  0.0  0.0
node   3   coords 3  0.0  0.1  0.0
node   4   coords 3  0.1  0.1  0.0
#
#
# ELEMENTS
#
planestress2d   1   nodes 4   1 2 4 3 crossSect 1 
#
Set 1 nodes 1 1
Set 2 nodes 1 3
Set 3 nodes 2 2 4
#
# CROSSECTION
#
SimpleCS 1 thick 1.0 width 1.0 material 1
#
#
# MATERIAL
#
EC2CreepMat 1 d 0. n 0.2 fcm28 30 stiffnessFactor 1.e6 relMatAge 7. t0 7. timeFactor 1. cemType 2 henv 0.5 h0 100. shType 0 begOfTimeOfInterest 1. endOfTimeOfInterest 10. spectrum castingTime 10. preCastingTimeMat 2
#
IsoLE 2 d 0. n 0.2 E 1.e-6 talpha 0.
#
#
#
#
BoundaryCondition 1 loadTimeFunction 1 dofs 2 1 2 values 2 0. 0. set 1
BoundaryCondition 2 loadTimeFunction 1 dofs 1 1 values 1 0. set 2
NodalLoad 3 loadTimeFunction 1 dofs 2 1 2 components 2 0.05e-9 0. set 3
NodalLoad 4 loadTimeFunction 2 dofs 2 1 2 components 2 0.05 0. set 3
#
#
# TIME FUNCTION
#
ConstantFunction 1 f(t) 1.0
HeavisideLTF 2 origin 10.0 value 1.0
#
#_#%BEGIN_CHECK% 
#TIME
#NODE  number 4 dof 1 unknown d 
#_#%END_CHECK%
#
#%BEGIN_CHECK% tolerance 1e-9
#NODE tStep 17 number 4 dof 1 unknown d value 1.047935e-04
#NODE tStep 25 number 4 dof 1 unknown d value 1.048435e-04
#NODE tStep 40 number 4 dof 1 unknown d value 1.131202e-04
#%END_CHECK%
