ex-bspline-06.out
Two high order bspline patches together, skewed, constant strain
LinearStatic nsteps 1 nmodules 1
errorcheck
domain 2dPlaneStress
OutputManager tstep_all dofman_all element_all
ndofman 9 nelem 2 ncrosssect 1 nmat 1 nbc 3 nic 0 nltf 1 nset 4
node 1 coords  3 0.  0.  0.
node 2 coords  3 4.  0.  0.
node 3 coords  3 6.  0.  0.
node 4 coords  3 0.  1.  0.
node 5 coords  3 2.  1.  0.
node 6 coords  3 6.  1.  0.
node 7 coords  3 0.  3.  0.
node 8 coords  3 4.  3.  0.
node 9 coords  3 6.  3.  0.
#
bsplineplanestresselement 1 nodes 6 1 2 4 5 7 8 knotvectoru 2 0 1 knotvectorv 2 0 7 degree 2 1 2 nip 16
bsplineplanestresselement 2 nodes 6 2 3 5 6 8 9 knotvectoru 2 0 1 knotvectorv 2 0 7 degree 2 1 2 nip 16
#
SimpleCS 1 thick 0.15 material 1 set 1
#
IsoLE 1 d 0. E 15.0 n 0.25 tAlpha 0.000012
BoundaryCondition 1 loadTimeFunction 1 dofs 1 1 values 1 0.0 set 2
BoundaryCondition 2 loadTimeFunction 1 dofs 1 2 values 1 0.0 set 3
BoundaryCondition 3 loadTimeFunction 1 dofs 1 1 values 1 1.0 set 4
ConstantFunction 1 f(t) 1.0
Set 1 elementranges {(1 2)}
Set 2 nodes 3 1 4 7
Set 3 nodes 3 1 2 3
Set 4 nodes 3 3 6 9

#
#%BEGIN_CHECK% tolerance 1.e-8
## check all nodes
#NODE tStep 1 number 1 dof 1 unknown d value 0.0
#NODE tStep 1 number 2 dof 1 unknown d value 6.66666667e-01
#NODE tStep 1 number 3 dof 1 unknown d value 1.0
#NODE tStep 1 number 4 dof 1 unknown d value 0.0
#NODE tStep 1 number 5 dof 1 unknown d value 3.33333333e-01
#NODE tStep 1 number 6 dof 1 unknown d value 1.0
#NODE tStep 1 number 7 dof 1 unknown d value 0.0
#NODE tStep 1 number 8 dof 1 unknown d value 6.66666667e-01
#NODE tStep 1 number 9 dof 1 unknown d value 1.0
##
#NODE tStep 1 number 1 dof 2 unknown d value 0.0
#NODE tStep 1 number 2 dof 2 unknown d value 0.0
#NODE tStep 1 number 3 dof 2 unknown d value 0.0
#NODE tStep 1 number 4 dof 2 unknown d value -4.16666667e-02
#NODE tStep 1 number 5 dof 2 unknown d value -4.16666667e-02
#NODE tStep 1 number 6 dof 2 unknown d value -4.16666667e-02
#NODE tStep 1 number 7 dof 2 unknown d value -0.125
#NODE tStep 1 number 8 dof 2 unknown d value -0.125
#NODE tStep 1 number 9 dof 2 unknown d value -0.125
## check element no. 1 strain vector
#ELEMENT tStep 1 number 1 gp 1 keyword 4 component 1  value 1.66666667e-01
#ELEMENT tStep 1 number 1 gp 1 keyword 4 component 2  value -4.16666667e-02 
#ELEMENT tStep 1 number 1 gp 1 keyword 4 component 6  value 0.0
#ELEMENT tStep 1 number 1 gp 2 keyword 4 component 1  value 1.66666667e-01
#ELEMENT tStep 1 number 1 gp 2 keyword 4 component 2  value -4.16666667e-02
#ELEMENT tStep 1 number 1 gp 2 keyword 4 component 6  value 0.0
#ELEMENT tStep 1 number 2 gp 3 keyword 4 component 1  value 1.66666667e-01
#ELEMENT tStep 1 number 2 gp 3 keyword 4 component 2  value -4.16666667e-02
#ELEMENT tStep 1 number 2 gp 3 keyword 4 component 6  value 0.0
#ELEMENT tStep 1 number 2 gp 16 keyword 4 component 1  value 1.66666667e-01
#ELEMENT tStep 1 number 2 gp 16 keyword 4 component 2  value -4.16666667e-02
#ELEMENT tStep 1 number 2 gp 16 keyword 4 component 6  value 0.0
## check element no. 1 stress vector
#ELEMENT tStep 1 number 1 gp 1 keyword 1 component 1  value 2.5
#ELEMENT tStep 1 number 1 gp 1 keyword 1 component 2  value 0.0
#ELEMENT tStep 1 number 1 gp 1 keyword 1 component 6  value 0.0
#ELEMENT tStep 1 number 1 gp 2 keyword 1 component 1  value 2.5
#ELEMENT tStep 1 number 1 gp 2 keyword 1 component 2  value 0.0
#ELEMENT tStep 1 number 1 gp 2 keyword 1 component 6  value 0.0
#ELEMENT tStep 1 number 2 gp 3 keyword 1 component 1  value 2.5
#ELEMENT tStep 1 number 2 gp 3 keyword 1 component 2  value 0.0
#ELEMENT tStep 1 number 2 gp 3 keyword 1 component 6  value 0.0
#ELEMENT tStep 1 number 2 gp 16 keyword 1 component 1  value 2.5
#ELEMENT tStep 1 number 2 gp 16 keyword 1 component 2  value 0.0
#ELEMENT tStep 1 number 2 gp 16 keyword 1 component 6  value 0.0
##
#%END_CHECK%
