ex-bspline-01.out
Patch test of bsplineplanestresselement elements -> pure tension in x direction
LinearStatic nsteps 1 nmodules 1
errorcheck
domain 2dPlaneStress
OutputManager tstep_all dofman_all element_all
ndofman 4 nelem 1 ncrosssect 1 nmat 1 nbc 3 nic 0 nltf 1 nset 4
node 1 coords 3 0.  0.  0.
node 2 coords 3 10. 0.  0.
node 3 coords 3 10. 2.  0.
node 4 coords 3 0.  2.  0.
#
bsplineplanestresselement 1 nodes 4 1 2 4 3 crosssect 1 knotvectoru 2 0 1 knotvectorv 2 0 1 knotmultiplicityu 2 2 2 degree 2 1 1 nip 4
#
SimpleCS 1 thick 0.15 material 1 set 1
#
IsoLE 1 d 0. E 15.0 n 0.25 tAlpha 0.000012
BoundaryCondition 1 loadTimeFunction 1 dofs 1 1 values 1 0.0 set 2
BoundaryCondition 2 loadTimeFunction 1 dofs 1 2 values 1 0.0 set 3
BoundaryCondition 3 loadTimeFunction 1 dofs 1 1 values 1 1.0 set 4
ConstantFunction 1 f(t) 1.0
Set 1 elementranges {1}
Set 2 nodes 2 1 4
Set 3 nodes 2 1 2
Set 4 nodes 2 2 3
#
#%BEGIN_CHECK% tolerance 1.e-8
## check reactions 
##REACTION tStep 1 number 1 dof 1 value 
##REACTION tStep 1 number 1 dof 2 value 0.0
## check all nodes
#NODE tStep 1 number 1 dof 1 unknown d value 0.0
#NODE tStep 1 number 2 dof 1 unknown d value 1.0
#NODE tStep 1 number 3 dof 1 unknown d value 1.0
#NODE tStep 1 number 4 dof 1 unknown d value 0.0
##
#NODE tStep 1 number 1 dof 2 unknown d value 0.0
#NODE tStep 1 number 2 dof 2 unknown d value 0.0
#NODE tStep 1 number 3 dof 2 unknown d value -0.05
#NODE tStep 1 number 4 dof 2 unknown d value -0.05
## check element no. 1 strain vector
#ELEMENT tStep 1 number 1 gp 1 keyword 4 component 1  value 0.1
#ELEMENT tStep 1 number 1 gp 1 keyword 4 component 2  value -0.025
#ELEMENT tStep 1 number 1 gp 1 keyword 4 component 6  value 0.0
#ELEMENT tStep 1 number 1 gp 2 keyword 4 component 1  value 0.1
#ELEMENT tStep 1 number 1 gp 2 keyword 4 component 2  value -0.025
#ELEMENT tStep 1 number 1 gp 2 keyword 4 component 6  value 0.0
#ELEMENT tStep 1 number 1 gp 3 keyword 4 component 1  value 0.1
#ELEMENT tStep 1 number 1 gp 3 keyword 4 component 2  value -0.025
#ELEMENT tStep 1 number 1 gp 3 keyword 4 component 6  value 0.0
#ELEMENT tStep 1 number 1 gp 4 keyword 4 component 1  value 0.1
#ELEMENT tStep 1 number 1 gp 4 keyword 4 component 2  value -0.025
#ELEMENT tStep 1 number 1 gp 4 keyword 4 component 6  value 0.0
## check element no. 1 stress vector
#ELEMENT tStep 1 number 1 gp 1 keyword 1 component 1  value 1.5
#ELEMENT tStep 1 number 1 gp 1 keyword 1 component 2  value 0.0
#ELEMENT tStep 1 number 1 gp 1 keyword 1 component 6  value 0.0
#ELEMENT tStep 1 number 1 gp 2 keyword 1 component 1  value 1.5
#ELEMENT tStep 1 number 1 gp 2 keyword 1 component 2  value 0.0
#ELEMENT tStep 1 number 1 gp 2 keyword 1 component 6  value 0.0
#ELEMENT tStep 1 number 1 gp 3 keyword 1 component 1  value 1.5
#ELEMENT tStep 1 number 1 gp 3 keyword 1 component 2  value 0.0
#ELEMENT tStep 1 number 1 gp 3 keyword 1 component 6  value 0.0
#ELEMENT tStep 1 number 1 gp 4 keyword 1 component 1  value 1.5
#ELEMENT tStep 1 number 1 gp 4 keyword 1 component 2  value 0.0
#ELEMENT tStep 1 number 1 gp 4 keyword 1 component 6  value 0.0
##
#%END_CHECK%
