ex3d-nurbs-01.out
tri-linear IGA brick, constant deformation
LinearStatic nsteps 1 nmodules 1
errorcheck
domain 3d
OutputManager tstep_all dofman_all element_all
ndofman 8 nelem 1 ncrosssect 1 nmat 1 nbc 4 nic 0 nltf 1 nset 4
node 1 coords 4 0 0 0 1
node 2 coords 4 4 0 0 1
node 3 coords 4 0 3 0 1
node 4 coords 4 4 3 0 1
node 5 coords 4 0 0 5 1
node 6 coords 4 4 0 5 1
node 7 coords 4 0 3 5 1
node 8 coords 4 4 3 5 1
nurbs3delement 1 nodes 8 1 2 3 4 5 6 7 8 crossSect 1 knotvectoru 2 0 1 knotmultiplicityu 2 2 2 knotvectorv 2 0 1 knotmultiplicityv 2 2 2 knotvectorw 2 0 1 knotmultiplicityw 2 2 2 degree 3 1 1 1 nip 8
#
SimpleCS 1 material 1
#
IsoLE 1 d 0. E 15.0e3 n 0.25 tAlpha 0.000012
BoundaryCondition 1 loadTimeFunction 1 dofs 3 1 2 3 values 3 0.0 0.0 0.0 set 1
BoundaryCondition 2 loadTimeFunction 1 dofs 2 2 3 values 2 0.0 0.0 set 2
BoundaryCondition 3 loadTimeFunction 1 dofs 1 3 values 1 0.0 set 3
BoundaryCondition 4 loadTimeFunction 1 dofs 1 3 values 1 1.0 set 4
ConstantFunction 1 f(t) 1.0
Set 1 nodes 1 1
Set 2 nodes 1 2
Set 3 nodes 2 3 4
Set 4 nodes 4 5 6 7 8
#
#%BEGIN_CHECK% tolerance 1.e-8
## check all nodes
#NODE tStep 1 number 1 dof 1 unknown d value  0.0
#NODE tStep 1 number 2 dof 1 unknown d value -0.2
#NODE tStep 1 number 3 dof 1 unknown d value  0.0
#NODE tStep 1 number 4 dof 1 unknown d value -0.2
#NODE tStep 1 number 5 dof 1 unknown d value  0.0
#NODE tStep 1 number 6 dof 1 unknown d value -0.2
#NODE tStep 1 number 7 dof 1 unknown d value  0.0
#NODE tStep 1 number 8 dof 1 unknown d value -0.2
##
#NODE tStep 1 number 1 dof 2 unknown d value  0.0
#NODE tStep 1 number 2 dof 2 unknown d value  0.0
#NODE tStep 1 number 3 dof 2 unknown d value -0.15
#NODE tStep 1 number 4 dof 2 unknown d value -0.15
#NODE tStep 1 number 5 dof 2 unknown d value  0.0
#NODE tStep 1 number 6 dof 2 unknown d value  0.0
#NODE tStep 1 number 7 dof 2 unknown d value -0.15
#NODE tStep 1 number 8 dof 2 unknown d value -0.15
##
#NODE tStep 1 number 1 dof 3 unknown d value  0.0
#NODE tStep 1 number 2 dof 3 unknown d value  0.0
#NODE tStep 1 number 3 dof 3 unknown d value  0.0
#NODE tStep 1 number 4 dof 3 unknown d value  0.0
#NODE tStep 1 number 5 dof 3 unknown d value  1.0
#NODE tStep 1 number 6 dof 3 unknown d value  1.0
#NODE tStep 1 number 7 dof 3 unknown d value  1.0
#NODE tStep 1 number 8 dof 3 unknown d value  1.0
#
## check element no. 1 strain vector
#ELEMENT tStep 1 number 1 gp 1 keyword 4 component 1  value -5.0000e-02
#ELEMENT tStep 1 number 1 gp 1 keyword 4 component 2  value -5.0000e-02
#ELEMENT tStep 1 number 1 gp 1 keyword 4 component 3  value 2.0000e-01
#ELEMENT tStep 1 number 1 gp 1 keyword 4 component 4  value 0.0
#ELEMENT tStep 1 number 1 gp 1 keyword 4 component 5  value 0.0
#ELEMENT tStep 1 number 1 gp 1 keyword 4 component 6  value 0.0
#
#ELEMENT tStep 1 number 1 gp 6 keyword 4 component 1  value -5.0000e-02
#ELEMENT tStep 1 number 1 gp 6 keyword 4 component 2  value -5.0000e-02
#ELEMENT tStep 1 number 1 gp 6 keyword 4 component 3  value 2.0000e-01
#ELEMENT tStep 1 number 1 gp 6 keyword 4 component 4  value 0.0
#ELEMENT tStep 1 number 1 gp 6 keyword 4 component 5  value 0.0
#ELEMENT tStep 1 number 1 gp 6 keyword 4 component 6  value 0.0
## check element no. 1 stress vector
#ELEMENT tStep 1 number 1 gp 1 keyword 1 component 1  value 0.0
#ELEMENT tStep 1 number 1 gp 1 keyword 1 component 2  value 0.0
#ELEMENT tStep 1 number 1 gp 1 keyword 1 component 3  value 3.0000e+03
#ELEMENT tStep 1 number 1 gp 1 keyword 1 component 4  value 0.0
#ELEMENT tStep 1 number 1 gp 1 keyword 1 component 5  value 0.0
#ELEMENT tStep 1 number 1 gp 1 keyword 1 component 6  value 0.0
#
#ELEMENT tStep 1 number 1 gp 6 keyword 1 component 1  value 0.0
#ELEMENT tStep 1 number 1 gp 6 keyword 1 component 2  value 0.0
#ELEMENT tStep 1 number 1 gp 6 keyword 1 component 3  value 3.0000e+03
#ELEMENT tStep 1 number 1 gp 6 keyword 1 component 4  value 0.0
#ELEMENT tStep 1 number 1 gp 6 keyword 1 component 5  value 0.0
#ELEMENT tStep 1 number 1 gp 6 keyword 1 component 6  value 0.0
##
#%END_CHECK%

