ex3d-nurbs-02.out
tri-quadratic IGA brick, constant deformation
LinearStatic nsteps 1
domain 3d
OutputManager tstep_all dofman_all element_all
ndofman 27 nelem 1 ncrosssect  1 nmat 1 nbc 2 nic 0 nltf 1
node 1 coords 4 0 0 0 1 bc 3 1 1 1  
node 2 coords 4 2 0 0 1 bc 3 0 0 1
node 3 coords 4 4 0 0 1 bc 3 0 1 1
node 4 coords 4 0 1.5 0 1 bc 3 0 0 1
node 5 coords 4 2 1.5 0 1 bc 3 0 0 1
node 6 coords 4 4 1.5 0 1 bc 3 0 0 1
node 7 coords 4 0 3 0 1 bc 3 0 0 1
node 8 coords 4 2 3 0 1 bc 3 0 0 1
node 9 coords 4 4 3 0 1 bc 3 0 0 1
#
node 10 coords 4 0 0 2.5 1
node 11 coords 4 2 0 2.5 1
node 12 coords 4 4 0 2.5 1
node 13 coords 4 0 1.5 2.5 1
node 14 coords 4 2 1.5 2.5 1
node 15 coords 4 4 1.5 2.5 1
node 16 coords 4 0 3 2.5 1
node 17 coords 4 2 3 2.5 1
node 18 coords 4 4 3 2.5 1
#
node 19 coords 4 0 0 5 1 bc 3 0 0 2  
node 20 coords 4 2 0 5 1 bc 3 0 0 2
node 21 coords 4 4 0 5 1 bc 3 0 0 2
node 22 coords 4 0 1.5 5 1 bc 3 0 0 2
node 23 coords 4 2 1.5 5 1 bc 3 0 0 2
node 24 coords 4 4 1.5 5 1 bc 3 0 0 2
node 25 coords 4 0 3 5 1 bc 3 0 0 2
node 26 coords 4 2 3 5 1 bc 3 0 0 2
node 27 coords 4 4 3 5 1 bc 3 0 0 2
#
nurbs3delement 1 nodes 27 1 2 3 4 5 6 7 8 9 10 11 12 13 14 15 16 17 18 19 20 21 22 23 24 25 26 27 mat 1 crossSect 1 knotvectoru 2 0 1 knotmultiplicityu 2 3 3 knotvectorv 2 0 1 knotmultiplicityv 2 3 3 knotvectorw 2 0 1 knotmultiplicityw 2 3 3 degree 3 2 2 2 nip 64
#
SimpleCS 1
#
IsoLE 1 d 0. E 15.0e3 n 0.25 tAlpha 0.000012
BoundaryCondition  1 loadTimeFunction 1 prescribedvalue 0.0 
BoundaryCondition  2 loadTimeFunction 1 prescribedvalue 1.0 
ConstantFunction 1 f(t) 1.0

#
#%BEGIN_CHECK% tolerance 1.e-8
## check all nodes
#NODE tStep 1 number 1 dof 1 unknown d value  0.0
#NODE tStep 1 number 2 dof 1 unknown d value -0.1
#NODE tStep 1 number 3 dof 1 unknown d value -0.2
#NODE tStep 1 number 4 dof 1 unknown d value  0.0
#NODE tStep 1 number 5 dof 1 unknown d value -0.1
#NODE tStep 1 number 6 dof 1 unknown d value -0.2
#NODE tStep 1 number 25 dof 1 unknown d value  0.0
#NODE tStep 1 number 26 dof 1 unknown d value -0.1
#NODE tStep 1 number 27 dof 1 unknown d value -0.2
##
#NODE tStep 1 number 1 dof 2 unknown d value  0.0
#NODE tStep 1 number 2 dof 2 unknown d value  0.0
#NODE tStep 1 number 4 dof 2 unknown d value -7.50000000e-02
#NODE tStep 1 number 5 dof 2 unknown d value -7.50000000e-02
#NODE tStep 1 number 8 dof 2 unknown d value -0.15
#NODE tStep 1 number 9 dof 2 unknown d value -0.15
#NODE tStep 1 number 25 dof 2 unknown d value -0.15
#NODE tStep 1 number 26 dof 2 unknown d value -0.15
#NODE tStep 1 number 27 dof 2 unknown d value -0.15
##
#NODE tStep 1 number 1 dof 3 unknown d value  0.0
#NODE tStep 1 number 2 dof 3 unknown d value  0.0
#NODE tStep 1 number 10 dof 3 unknown d value  0.5
#NODE tStep 1 number 11 dof 3 unknown d value  0.5
#NODE tStep 1 number 19 dof 3 unknown d value  1.0
#NODE tStep 1 number 20 dof 3 unknown d value  1.0
#NODE tStep 1 number 26 dof 3 unknown d value  1.0
#NODE tStep 1 number 27 dof 3 unknown d value  1.0
#
## check element no. 1 strain vector
#ELEMENT tStep 1 number 1 irule 0 gp 1 keyword "strains" component 1  value -5.0000e-02
#ELEMENT tStep 1 number 1 irule 0 gp 1 keyword "strains" component 2  value -5.0000e-02
#ELEMENT tStep 1 number 1 irule 0 gp 1 keyword "strains" component 3  value 2.0000e-01
#ELEMENT tStep 1 number 1 irule 0 gp 1 keyword "strains" component 4  value 0.0
#ELEMENT tStep 1 number 1 irule 0 gp 1 keyword "strains" component 5  value 0.0
#ELEMENT tStep 1 number 1 irule 0 gp 1 keyword "strains" component 6  value 0.0
#
#ELEMENT tStep 1 number 1 irule 0 gp 20 keyword "strains" component 1  value -5.0000e-02
#ELEMENT tStep 1 number 1 irule 0 gp 20 keyword "strains" component 2  value -5.0000e-02
#ELEMENT tStep 1 number 1 irule 0 gp 20 keyword "strains" component 3  value 2.0000e-01
#ELEMENT tStep 1 number 1 irule 0 gp 20 keyword "strains" component 4  value 0.0
#ELEMENT tStep 1 number 1 irule 0 gp 20 keyword "strains" component 5  value 0.0
#ELEMENT tStep 1 number 1 irule 0 gp 20 keyword "strains" component 6  value 0.0
## check element no. 1 stress vector
#ELEMENT tStep 1 number 1 irule 0 gp 1 keyword "stresses" component 1  value 0.0
#ELEMENT tStep 1 number 1 irule 0 gp 1 keyword "stresses" component 2  value 0.0
#ELEMENT tStep 1 number 1 irule 0 gp 1 keyword "stresses" component 3  value 3.0000e+03
#ELEMENT tStep 1 number 1 irule 0 gp 1 keyword "stresses" component 4  value 0.0
#ELEMENT tStep 1 number 1 irule 0 gp 1 keyword "stresses" component 5  value 0.0
#ELEMENT tStep 1 number 1 irule 0 gp 1 keyword "stresses" component 6  value 0.0
#
#ELEMENT tStep 1 number 1 irule 0 gp 20 keyword "stresses" component 1  value 0.0
#ELEMENT tStep 1 number 1 irule 0 gp 20 keyword "stresses" component 2  value 0.0
#ELEMENT tStep 1 number 1 irule 0 gp 20 keyword "stresses" component 3  value 3.0000e+03
#ELEMENT tStep 1 number 1 irule 0 gp 20 keyword "stresses" component 4  value 0.0
#ELEMENT tStep 1 number 1 irule 0 gp 20 keyword "stresses" component 5  value 0.0
#ELEMENT tStep 1 number 1 irule 0 gp 20 keyword "stresses" component 6  value 0.0
##
#%END_CHECK%


