fibered01.out
Simple Beam Structure - free torsion
StaticStructural nsteps 1 nmodules 0
domain 3dBeam
OutputManager tstep_all dofman_all element_all
ndofman 4 nelem 2 ncrosssect 2 nmat 1 nbc 2 nic 0 nltf 1 nset 4
node 1 coords 3 0.  0.  0.
node 2 coords 3 3.0 0.  0.
node 3 coords 3 0.  0.  0.
node 4 coords 3 3.0 0.  0.
#
Beam3d 1 nodes 2 1 2 zaxis 3 0 0 1
Beam3d 2 nodes 2 3 4 zaxis 3 0 0 1
#
SimpleCS 1 area 0.02 Iy 2.0e-4 Iz 1.25e-5 Ik 2.125e-4 beamShearCoeff 1.e18 thick 0.54 material 1 set 1
FiberedCS 2 fibermaterials 4 1 1 1 1 thicks 4 0.1 0.1 0.1 0.1 widths 4 0.05 0.05 0.05 0.05 thick 0.2 width 0.1 fiberycentrecoords 4 -0.025 0.025 -0.025 0.025 fiberzcentrecoords 4 0.1 0.1 -0.1 -0.1 set 2
IsoLE 1 d 1. E 30. n 0.2 tAlpha 1.2e-5
BoundaryCondition 1 loadTimeFunction 1 dofs 6 1 2 3 4 5 6 values 6 0 0 0 0 0 0 set 3
NodalLoad 2 loadTimeFunction 1 dofs 2 2 4 Components 2 0.0 10.0 set 4
PeakFunction 1 t 1.0 f(t) 1.
Set 1 elements 1 1
Set 2 elements 1 2
Set 3 nodes 2 1 3
Set 4 nodes 2 2 4 