freewarpingtest2.out
warping analysis of ellipse and rectangle
FreeWarping nsteps 1 nmodules 1
#vtkxml tstep_all domain_all primvars 1 16 vars 2 1 4 stype 1
errorcheck 1
domain Warping
OutputManager tstep_all dofman_all element_all
ndofman 1399 nelem 2586 ncrosssect 2 nmat 1 nbc 1 nic 0 nltf 1 nset 3
node 1 coords 3 0.000000e+00 0.000000e+00 0.000000e+00 DofIDMask 1 24
node 2 coords 3 0.000000e+00 0.000000e+00 0.000000e+00 DofIDMask 1 24
node 3 coords 3 2.000000e+00 0.000000e+00 0.000000e+00
node 4 coords 3 1.989044e+00 1.045285e-01 0.000000e+00
node 5 coords 3 1.956295e+00 2.079117e-01 0.000000e+00
node 6 coords 3 1.902113e+00 3.090170e-01 0.000000e+00
node 7 coords 3 1.827091e+00 4.067366e-01 0.000000e+00
node 8 coords 3 1.732051e+00 5.000000e-01 0.000000e+00
node 9 coords 3 1.618034e+00 5.877853e-01 0.000000e+00
node 10 coords 3 1.486290e+00 6.691306e-01 0.000000e+00
node 11 coords 3 1.338261e+00 7.431448e-01 0.000000e+00
node 12 coords 3 1.175571e+00 8.090170e-01 0.000000e+00
node 13 coords 3 1.000000e+00 8.660254e-01 0.000000e+00
node 14 coords 3 8.134733e-01 9.135455e-01 0.000000e+00
node 15 coords 3 6.180340e-01 9.510565e-01 0.000000e+00
node 16 coords 3 4.158234e-01 9.781476e-01 0.000000e+00
node 17 coords 3 2.090569e-01 9.945219e-01 0.000000e+00
node 18 coords 3 5.665539e-16 1.000000e+00 0.000000e+00
node 19 coords 3 -2.090569e-01 9.945219e-01 0.000000e+00
node 20 coords 3 -4.158234e-01 9.781476e-01 0.000000e+00
node 21 coords 3 -6.180340e-01 9.510565e-01 0.000000e+00
node 22 coords 3 -8.134733e-01 9.135455e-01 0.000000e+00
# ... 1377 like lines cut
trwarp 1 nodes 3 7 67 207
trwarp 2 nodes 3 67 8 208
trwarp 3 nodes 3 8 68 209
trwarp 4 nodes 3 68 9 210
trwarp 5 nodes 3 9 69 211
trwarp 6 nodes 3 69 10 212
trwarp 7 nodes 3 10 70 213
trwarp 8 nodes 3 70 11 214
trwarp 9 nodes 3 11 71 215
trwarp 10 nodes 3 71 12 216
trwarp 11 nodes 3 12 72 217
trwarp 12 nodes 3 72 13 218
trwarp 13 nodes 3 13 73 219
trwarp 14 nodes 3 73 14 220
trwarp 15 nodes 3 14 74 221
trwarp 16 nodes 3 74 15 222
trwarp 17 nodes 3 15 75 223
trwarp 18 nodes 3 75 16 224
trwarp 19 nodes 3 16 76 225
trwarp 20 nodes 3 76 17 226
# ... 2566 like lines cut
warpingcs 1 warpingNode 1 material 1 set 1
warpingcs 2 warpingNode 2 material 1 set 2
IsoLE 1 d 0. E 35000.0 n 0.25 talpha 0.000012
BoundaryCondition 1 loadTimeFunction 1 dofs 1 24 values 1 1.0 set 3
PiecewiseLinFunction 1 t 2 0. 1000. f(t) 2 0.0 1000.
Set 1 elementranges {(1 1634)}
Set 2 elementranges {(1635 2586)}
Set 3 nodes 2 1 2
#
#%BEGIN_CHECK% tolerance 1.e-4
#NODE tStep 1 number	3	dof 23 unknown d value	-3.3242E-05
#NODE tStep 1 number	4	dof 23 unknown d value	-1.2448E-01
#NODE tStep 1 number	5	dof 23 unknown d value	-2.4395E-01
#NODE tStep 1 number	6	dof 23 unknown d value	-3.5259E-01
#NODE tStep 1 number	7	dof 23 unknown d value	-4.4724E-01
#NODE tStep 1 number	8	dof 23 unknown d value	-5.1954E-01
#NODE tStep 1 number	9	dof 23 unknown d value	-5.7008E-01
#NODE tStep 1 number	10	dof 23 unknown d value	-5.9605E-01
#NODE tStep 1 number	11	dof 23 unknown d value	-5.9607E-01
#NODE tStep 1 number	12	dof 23 unknown d value	-5.7004E-01
#NODE tStep 1 number	13	dof 23 unknown d value	-5.1902E-01
#NODE tStep 1 number	14	dof 23 unknown d value	-4.4539E-01
#NODE tStep 1 number	15	dof 23 unknown d value	-3.5228E-01
#NODE tStep 1 number	16	dof 23 unknown d value	-2.4377E-01
#NODE tStep 1 number	17	dof 23 unknown d value	-1.2462E-01
#NODE tStep 1 number	18	dof 23 unknown d value	-1.0699E-05
#NODE tStep 1 number	19	dof 23 unknown d value	1.2460E-01
#NODE tStep 1 number	20	dof 23 unknown d value	2.4377E-01
#NODE tStep 1 number	21	dof 23 unknown d value	3.5229E-01
#NODE tStep 1 number	22	dof 23 unknown d value	4.4539E-01
# ... 46 like lines cut
#%END_CHECK%


