# INTRODUCTION 
generalslavenode.out
Rectangle made of 9 elements and 16 nodes, some of them setup as general slave nodes leading to periodic boundary conditions
StaticStructural nsteps 1 nmodules 1 stiffmode 0 manrmsteps 1 rtolv 1.e-8
errorcheck
Domain PlaneStrain
OutputManager tstep_all dofman_all element_all
ndofman 16 nelem 9 ncrosssect 1 nmat 1 nbc 3 nic 0 nltf 1 nset 4
##################################################### NODES ###################################################################
Node  1 coords 3 0. 0. 0.
Node  2 coords 3 1. 0. 0.
Node  3 coords 3 2. 0. 0.
Node  4 coords 3 3. 0. 0. 
Node  5 coords 3 0. 1. 0.
Node  6 coords 3 1. 1. 0.
Node  7 coords 3 2. 1. 0.
GeneralSlaveNode  8 coords 3 3. 1. 0.  dofType 2 2 2 MasterSizes 2 2 2 MasterList 8 5 1 4 1 5 2 4 2 MasterWeights 4 1 1 1 1
Node  9 coords 3 0. 2. 0.
Node 10 coords 3 1. 2. 0.
Node 11 coords 3 2. 2. 0.
GeneralSlaveNode 12 coords 3 3. 2. 0. dofType 2 2 2 MasterSizes 2 2 2 MasterList 8 9 1 4 1 9 2 4 2 MasterWeights 4 1 1 1 1
Node 13 coords 3 0. 3. 0.
GeneralSlaveNode 14 coords 3 1. 3. 0. dofType 2 2 2 MasterSizes 2 2 2 MasterList 8 2 1 13 1 2 2 13 2 MasterWeights 4 1 1 1 1
GeneralSlaveNode 15 coords 3 2. 3. 0. dofType 2 2 2 MasterSizes 2 2 2 MasterList 8 3 1 13 1 3 2 13 2 MasterWeights 4 1 1 1 1
GeneralSlaveNode 16 coords 3 3. 3. 0. dofType 2 2 2 MasterSizes 2 2 2 MasterList 8 4 1 13 1 4 2 13 2 MasterWeights 4 1 1 1 1
#################################################### Elements ####################################################################################
quad1planestrain 1 nodes 4  1  2  6  5 crossSect 1
quad1planestrain 2 nodes 4  2  3  7  6 crossSect 1
quad1planestrain 3 nodes 4  3  4  8  7 crossSect 1
quad1planestrain 4 nodes 4  5  6 10  9 crossSect 1
quad1planestrain 5 nodes 4  6  7 11 10 crossSect 1
quad1planestrain 6 nodes 4  7  8 12 11 crossSect 1
quad1planestrain 7 nodes 4  9 10 14 13 crossSect 1
quad1planestrain 8 nodes 4 10 11 15 14 crossSect 1
quad1planestrain 9 nodes 4 11 12 16 15 crossSect 1
# MATERIALS AND CROSS-SECTIONS 
SimpleCS 1 thick 1 material 1 set 1
IsoLE 1 d 1.0 E 500 n 0 tAlpha 1.e-6
# BCS
BoundaryCondition 1 loadTimeFunction 1 dofs 2 1 2 values 2 0.0 0.0 set 2
BoundaryCondition 2 loadTimeFunction 1 dofs 2 1 2 values 2 0.5 0.0 set 3
BoundaryCondition 3 loadTimeFunction 1 dofs 2 1 2 values 2 0.1 0.2 set 4
# LOAD TIME FUNCTIONS 
PiecewiseLinFunction 1 nPoints 2 t 2 0 100 f(t) 2 0.0 100
# SETS 
Set 1 allElements
Set 2 nodes 1  1
Set 3 nodes 1  4
Set 4 nodes 1 13
#%BEGIN_CHECK% tolerance 1.e-6
##
#NODE tStep 1 number 8 dof 1 unknown d value 5.33333333e-01
#NODE tStep 1 number 8 dof 2 unknown d value 6.66666667e-02
##
#NODE tStep 1 number 12 dof 1 unknown d value 5.66666667e-01
#NODE tStep 1 number 12 dof 2 unknown d value 1.33333333e-01
##
#NODE tStep 1 number 14 dof 1 unknown d value 2.66666667e-01
#NODE tStep 1 number 14 dof 2 unknown d value 2.00000000e-01
##
#NODE tStep 1 number 15 dof 1 unknown d value 4.33333333e-01
#NODE tStep 1 number 15 dof 2 unknown d value 2.00000000e-01
##
#NODE tStep 1 number 16 dof 1 unknown d value 6.00000000e-01
#NODE tStep 1 number 16 dof 2 unknown d value 2.00000000e-01
#%END_CHECK%
