hangingnode02.out
Test of hanging node in PlaneStress2d element, offset numbering, results are the same as in hangingnode01.in
LinearStatic nsteps 1 nmodules 1
errorcheck
#LinearStatic nsteps 1 nmodules 1
#vtkxml tstep_all domain_all primvars 1 1 vars 2 1 4 stype 1
domain 2dPlaneStress
OutputManager tstep_all dofman_all element_all
ndofman 5 nelem 1 ncrosssect 1 nmat 1 nbc 3 nic 0 nltf 1 nset 4
node 11 coords 3  0.0   0.0   0.0
node 12 coords 3  0.0   4.0   0.0
node 13 coords 3  8.0   4.0   0.0
node 14 coords 3  8.0   0.0   0.0
hangingnode 15 coords 3  6.0 1.8 0.0 masterElement 1 dofType 2  2 2
PlaneStress2d 1 nodes 4 11 14 13 12
SimpleCS 1 thick 0.15 material 1 set 1
IsoLE 1 d 0. E 15.0 n 0.25 tAlpha 0.000012
BoundaryCondition  1 loadTimeFunction 1 dofs 2 1 2 values 2 0 0 set 2
BoundaryCondition  2 loadTimeFunction 1 dofs 1 1 values 1 0 set 3
NodalLoad 3 loadTimeFunction 1 dofs 2 1 2 Components 2 2.5 0.0 set 4
ConstantFunction 1 f(t) 1.0
Set 1 elementranges {1}
Set 2 nodes 1 11
Set 3 nodes 1 12
Set 4 nodes 1 15
#
#
#
#%BEGIN_CHECK% tolerance 1.e-4
## check reactions 
#REACTION tStep 1 number 11 dof 1 value -1.3750e+00
#REACTION tStep 1 number 12 dof 1 value -1.1250e+00
## check nodes
#NODE tStep 1 number 12 dof 2 unknown d value -2.08333333e-01
#NODE tStep 1 number 13 dof 1 unknown d value 1.19791667e+00
#NODE tStep 1 number 13 dof 2 unknown d value 7.29166667e-01
#NODE tStep 1 number 14 dof 1 unknown d value 2.13541667e+00
#NODE tStep 1 number 14 dof 2 unknown d value 9.37500000e-01
##NODE tStep 1 number 15 dof 1 unknown d value 1.28515625e+00
##NODE tStep 1 number 15 dof 2 unknown d value 6.09375000e-01
## check element no. 1 strain vector
#ELEMENT tStep 1 number 1 gp 1 keyword 4 component 1  value 1.7450e-01
#ELEMENT tStep 1 number 1 gp 1 keyword 4 component 2  value -5.2083e-02
## check element no. 1 stress vector
#ELEMENT tStep 1 number 1 gp 1 keyword 1 component 1  value 2.5837e+00
#ELEMENT tStep 1 number 1 gp 1 keyword 1 component 2  value -1.3532e-01
#%END_CHECK%
