homog01.out
Elastic homogenization of 2x2 quad elements with periodic boundary conditions and shear eigenstrain load
LinearStatic nsteps 1 nmodules 2
errorcheck
#vtkxml tstep_all domain_all cellvars 1 46 primvars 1 1 vars 2 1 4 stype 1
hom tstep_all ists 2 4 1
domain 2dPlaneStress
OutputManager tstep_all dofman_all element_all
ndofman 9 nelem 4 ncrosssect 1 nmat 2 nbc 2 nic 0 nltf 1
node 1 coords 2  0.0   0.0  bc 2 1 1
node 2 coords 2  1.5   0.0
node 3 coords 2  4.0   0.0  bc 2 0 1 masterMask 2 1 1 DoFType 2 1 1
node 4 coords 2  0.0   1.5
node 5 coords 2  1.8   1.5
node 6 coords 2  4.0   1.5  masterMask 2 4 4 DoFType 2 1 1
node 7 coords 2  0.0   2.0  masterMask 2 1 1 DoFType 2 1 1
node 8 coords 2  1.5   2.0  masterMask 2 2 2 DoFType 2 1 1
node 9 coords 2  4.0   2.0  masterMask 2 7 7 DoFType 2 1 1
PlaneStress2d 1 nodes 4 1 2 5 4  crossSect 1 mat 1 bodyLoads 1 2
PlaneStress2d 2 nodes 4 2 3 6 5  crossSect 1 mat 2 bodyLoads 1 2
PlaneStress2d 3 nodes 4 4 5 8 7  crossSect 1 mat 2 bodyLoads 1 2
PlaneStress2d 4 nodes 4 5 6 9 8  crossSect 1 mat 1 bodyLoads 1 2
SimpleCS 1 thick 0.15
IsoLE 1 d 0. E 10.0 n 0.25 tAlpha 0.000012
IsoLE 2 d 0. E 2.0 n 0.25 tAlpha 0.000012
BoundaryCondition  1 loadTimeFunction 1 prescribedvalue 0.0
StructEigenstrainLoad 2 loadTimeFunction 1 Components 3 0.0 0.0 0.2
ConstantFunction 1 f(t) 1.0
#
#
#%BEGIN_CHECK% tolerance 1.e-8
## check selected nodes
#NODE tStep 1 number 4 dof 1 unknown d value -5.76246558e-2
#NODE tStep 1 number 6 dof 1 unknown d value -5.76246558e-2
##
## check element strain vector
#ELEMENT tStep 1 number 1 gp 1 keyword 4 component 6  value 6.94129179e-02
#ELEMENT tStep 1 number 4 gp 1 keyword 4 component 6  value 4.20612770e-02
##
#%END_CHECK%
