homog03.out
Elastic homogenization of 2x2 quad elements with periodic boudnary conditions using master-slave and kinematic constrains, loaded by displacement
StaticStructural nsteps 1 rtolf 1e-3 nmodules 2
errorcheck
#vtkxml tstep_all domain_all cellvars 1 46 primvars 1 1 vars 2 1 4 stype 2
hom tstep_all ists 2 4 1
domain 2dPlaneStress
OutputManager tstep_all dofman_all element_all
ndofman 9 nelem 4 ncrosssect 2 nmat 2 nbc 8 nic 0 nltf 2 nset 4
node 1 coords 2  0.0   0.0
node 2 coords 2  1.5   0.0
node 3 coords 2  4.0   0.0
node 4 coords 2  0.0   1.5
node 5 coords 2  1.8   1.5
node 6 coords 2  4.0   1.5
node 7 coords 2  0.0   2.0
node 8 coords 2  1.5   2.0
node 9 coords 2  4.0   2.0
PlaneStress2d 1 nodes 4 1 2 5 4
PlaneStress2d 2 nodes 4 2 3 6 5
PlaneStress2d 3 nodes 4 4 5 8 7
PlaneStress2d 4 nodes 4 5 6 9 8
SimpleCS 1 thick 0.15 material 1 set 1
SimpleCS 2 thick 0.15 material 2 set 2
IsoLE 1 d 0. E 10.0 n 0.25 tAlpha 0.000012
IsoLE 2 d 0. E 2.0 n 0.25 tAlpha 0.000012
BoundaryCondition 1 loadTimeFunction 1 dofs 2 1 2 values 2 0.0 0.0 set 3
BoundaryCondition 2 loadTimeFunction 2 dofs 2 1 2 values 2 0.2 0.0 set 4
#vertical sides
LinearConstraintBC 3 loadTimeFunction 1 dofmans 4 3 1 6 4 dofs 4 1 1 1 1 weights 4 1. -1. -1. 1. rhs 0.0 lhstype 4 1 2 3 4 rhsType 2 150 151
LinearConstraintBC 4 loadTimeFunction 1 dofmans 4 3 1 6 4 dofs 4 2 2 2 2 weights 4 1. -1. -1. 1. rhs 0.0 lhstype 4 1 2 3 4 rhsType 2 150 151
LinearConstraintBC 5 loadTimeFunction 1 dofmans 4 3 1 9 7 dofs 4 1 1 1 1 weights 4 1. -1. -1. 1. rhs 0.0 lhstype 4 1 2 3 4 rhsType 2 150 151
LinearConstraintBC 6 loadTimeFunction 1 dofmans 4 3 1 9 7 dofs 4 2 2 2 2 weights 4 1. -1. -1. 1. rhs 0.0 lhstype 4 1 2 3 4 rhsType 2 150 151
LinearConstraintBC 7 loadTimeFunction 1 dofmans 4 7 1 8 2 dofs 4 1 1 1 1 weights 4 1. -1. -1. 1. rhs 0.0 lhstype 4 1 2 3 4 rhsType 2 150 151
LinearConstraintBC 8 loadTimeFunction 1 dofmans 4 7 1 8 2 dofs 4 2 2 2 2 weights 4 1. -1. -1. 1. rhs 0.0 lhstype 4 1 2 3 4 rhsType 2 150 151
ConstantFunction 1 f(t) 1.0
PiecewiseLinFunction 2 t 2 0 10 f(t) 2 0.0 10.0
Set 1 elements 2 1 4
Set 2 elements 2 2 3
Set 3 nodes 2 1 7
Set 4 nodes 1 3
###
### Used for Extractor
###
#%BEGIN_CHECK% tolerance 1.e-4
## check selected nodes
#NODE tStep 1 number 2 dof 1 unknown d value 4.56203177e-02
#NODE tStep 1 number 4 dof 1 unknown d value 1.29409298e-03
#NODE tStep 1 number 6 dof 1 unknown d value 2.01294093e-01
#NODE tStep 1 number 8 dof 1 unknown d value 4.56203177e-02
#NODE tStep 1 number 9 dof 1 unknown d value 2.00000000e-01
#NODE tStep 1 number 2 dof 2 unknown d value 4.39487708e-03
#NODE tStep 1 number 8 dof 2 unknown d value 4.39487708e-03
##
## check element strain vector
#ELEMENT tStep 1 number 1 gp 1 keyword 4 component 1  value 3.1647e-02
#ELEMENT tStep 1 number 4 gp 1 keyword 4 component 1  value 6.2332e-02
##
#%END_CHECK%
