homog03.out
Elastic homogenization of 2x2 quad elements with periodic boudnary conditions using master-slave and kinematic constrains, loaded by displacement
NonLinearStatic nsteps 2 rtolv 0.001 MaxIter 100 stiffmode 0 controllmode 1 nmodules 2
errorcheck
#vtkxml tstep_all domain_all cellvars 1 46 primvars 1 1 vars 2 1 4 stype 2
hom tstep_all
domain 2dPlaneStress
OutputManager tstep_all dofman_all element_all
ndofman 9 nelem 4 ncrosssect 1 nmat 2 nbc 8 nic 0 nltf 2
node 1 coords 2  0.0   0.0 bc 2 1 1
node 2 coords 2  1.5   0.0
node 3 coords 2  4.0   0.0 bc 2 2 1
node 4 coords 2  0.0   1.5
node 5 coords 2  1.8   1.5
node 6 coords 2  4.0   1.5
node 7 coords 2  0.0   2.0 bc 2 1 1
node 8 coords 2  1.5   2.0
node 9 coords 2  4.0   2.0
PlaneStress2d 1 nodes 4 1 2 5 4  crossSect 1 mat 1
PlaneStress2d 2 nodes 4 2 3 6 5  crossSect 1 mat 2
PlaneStress2d 3 nodes 4 4 5 8 7  crossSect 1 mat 2
PlaneStress2d 4 nodes 4 5 6 9 8  crossSect 1 mat 1
SimpleCS 1 thick 0.15
IsoLE 1 d 0. E 10.0 n 0.25 tAlpha 0.000012
IsoLE 2 d 0. E 2.0 n 0.25 tAlpha 0.000012
BoundaryCondition  1 loadTimeFunction 1 prescribedvalue 0.0
BoundaryCondition  2 loadTimeFunction 2 prescribedvalue 0.2
#vertical sides
LinearConstraintBC 3 loadTimeFunction 1 dofmans 4 3 1 6 4 dofs 4 1 1 1 1 weights 4 1. -1. -1. 1. rhs 0.0 lhstype 4 1 2 3 4 rhsType 2 150 151
LinearConstraintBC 4 loadTimeFunction 1 dofmans 4 3 1 6 4 dofs 4 2 2 2 2 weights 4 1. -1. -1. 1. rhs 0.0 lhstype 4 1 2 3 4 rhsType 2 150 151
LinearConstraintBC 5 loadTimeFunction 1 dofmans 4 3 1 9 7 dofs 4 1 1 1 1 weights 4 1. -1. -1. 1. rhs 0.0 lhstype 4 1 2 3 4 rhsType 2 150 151
LinearConstraintBC 6 loadTimeFunction 1 dofmans 4 3 1 9 7 dofs 4 2 2 2 2 weights 4 1. -1. -1. 1. rhs 0.0 lhstype 4 1 2 3 4 rhsType 2 150 151
LinearConstraintBC 7 loadTimeFunction 1 dofmans 4 7 1 8 2 dofs 4 1 1 1 1 weights 4 1. -1. -1. 1. rhs 0.0 lhstype 4 1 2 3 4 rhsType 2 150 151
LinearConstraintBC 8 loadTimeFunction 1 dofmans 4 7 1 8 2 dofs 4 2 2 2 2 weights 4 1. -1. -1. 1. rhs 0.0 lhstype 4 1 2 3 4 rhsType 2 150 151
ConstantFunction 1 f(t) 1.0
PiecewiseLinFunction 2 nPoints 2 t 2 0 10 f(t) 2 0.0 10.0
###
### Used for Extractor
###
#%BEGIN_CHECK% tolerance 1.e-4
## check selected nodes
#NODE tStep 2 number 2 dof 1 unknown d value 4.56203177e-02
#NODE tStep 2 number 4 dof 1 unknown d value 1.29409298e-03
#NODE tStep 2 number 6 dof 1 unknown d value 2.01294093e-01
#NODE tStep 2 number 8 dof 1 unknown d value 4.56203177e-02
#NODE tStep 2 number 9 dof 1 unknown d value 2.00000000e-01
#NODE tStep 2 number 2 dof 2 unknown d value 4.39487708e-03
#NODE tStep 2 number 8 dof 2 unknown d value 4.39487708e-03
##
## check element strain vector
#ELEMENT tStep 2 number 1 gp 1 keyword 4 component 1  value 3.1647e-02
#ELEMENT tStep 2 number 4 gp 1 keyword 4 component 1  value 6.2332e-02
##
#%END_CHECK%
