homog02.out
Elastic homogenization of 2x2 quad elements with periodic boudnary conditions using master-slave and kinematic constrains, loaded macroscopically in eps_x
LinearStatic nsteps 1 nmodules 2
errorcheck
#vtkxml tstep_all domain_all cellvars 1 46 primvars 1 1 vars 2 1 4  stype 2
hom tstep_all ists 2 4 1
domain 2dPlaneStress
OutputManager tstep_all dofman_all element_all
ndofman 9 nelem 4 ncrosssect 2 nmat 2 nbc 5 nic 0 nltf 1 nset 4
node 1 coords 2  0.0   0.0
node 2 coords 2  1.5   0.0
node 3 coords 2  4.0   0.0
node 4 coords 2  0.0   1.5
node 5 coords 2  1.8   1.5
node 6 coords 2  4.0   1.5 masterMask 2 0 4 doftype 2 0 1
node 7 coords 2  0.0   2.0 masterMask 2 0 1 doftype 2 0 1
node 8 coords 2  1.5   2.0 masterMask 2 2 2 doftype 2 1 1
node 9 coords 2  4.0   2.0 masterMask 2 0 7 doftype 2 0 1
PlaneStress2d 1 nodes 4 1 2 5 4
PlaneStress2d 2 nodes 4 2 3 6 5
PlaneStress2d 3 nodes 4 4 5 8 7
PlaneStress2d 4 nodes 4 5 6 9 8
SimpleCS 1 thick 0.15 material 1 set 1
SimpleCS 2 thick 0.15 material 2 set 2
IsoLE 1 d 0. E 10.0 n 0.25 tAlpha 0.000012
IsoLE 2 d 0. E 2.0 n 0.25 tAlpha 0.000012
BoundaryCondition  1 loadTimeFunction 1 dofs 2 1 2 values 2 0.0 0.0 set 3
BoundaryCondition  2 loadTimeFunction 1 dofs 1 2 values 1 0.0 set 4
#vertical sides
LinearConstraintBC 3 loadTimeFunction 1 dofmans 2 3 1 dofs 2 1 1 weights 2 1. -1. rhs 0.2 lhstype 4 1 2 3 4 rhsType 1 150
LinearConstraintBC 4 loadTimeFunction 1 dofmans 2 6 4 dofs 2 1 1 weights 2 1. -1. rhs 0.2 lhstype 4 1 2 3 4 rhsType 1 150
LinearConstraintBC 5 loadTimeFunction 1 dofmans 2 9 7 dofs 2 1 1 weights 2 1. -1. rhs 0.2 lhstype 4 1 2 3 4 rhsType 1 150
ConstantFunction 1 f(t) 1.0
Set 1 elements 2 1 4
Set 2 elements 2 2 3
Set 3 nodes 1 1
Set 4 nodes 1 3
#
#
#%BEGIN_CHECK% tolerance 1.e-8
## check selected nodes
#NODE tStep 1 number 2 dof 1 unknown d value 2.73491016e-02
#NODE tStep 1 number 4 dof 1 unknown d value -4.70998387e-02
#NODE tStep 1 number 6 dof 1 unknown d value 1.52900161e-01
#NODE tStep 1 number 8 dof 1 unknown d value 2.73491016e-02
##
## check element strain vector
#ELEMENT tStep 1 number 1 gp 1 keyword 4 component 1  value 2.875191e-02
#ELEMENT tStep 1 number 4 gp 1 keyword 4 component 1  value 3.981450e-02
##
#%END_CHECK%
