InterfaceEL_SurfTr1.out
Patch test for a interface element with a linear triangle surface
StaticStructural nsteps 1 nmodules 1 rtold 1e-5
errorcheck
domain 3d
OutputManager tstep_all dofman_all element_all
ndofman 16 nelem 14 ncrosssect 2 nmat 2 nbc 4 nic 0 nltf 1 nset 6
node 1 coords 3 0.2 0.  0.
node 2 coords 3 0.2 0.2 0.
node 3 coords 3 0.  0.2 0.
node 4 coords 3 0.  0.  0.
node 5 coords 3 0.2 0.  0.2
node 6 coords 3 0.2 0.2 0.2
node 7 coords 3 0.  0.2 0.2
node 8 coords 3 0.  0.  0.2
#
node 9 coords 3 0.2 0.2  0.
node 10 coords 3 0.2 0.4 0.
node 11 coords 3 0.  0.4 0.
node 12 coords 3 0.  0.2  0.
node 13 coords 3 0.2 0.2  0.2
node 14 coords 3 0.2 0.4 0.2
node 15 coords 3 0.  0.4 0.2
node 16 coords 3 0.  0.2  0.2
#
LTRSpace  1 nodes 4 1 8 5 6
LTRSpace  2 nodes 4 1 4 8 6
LTRSpace  3 nodes 4 1 2 4 6
#
LTRSpace  4 nodes 4 2 6 7 4
LTRSpace  5 nodes 4 2 7 3 4
LTRSpace  6 nodes 4 6 8 7 4
#
LTRSpace  7 nodes 4 9 16 13 14
LTRSpace  8 nodes 4 9 12 16 14
LTRSpace  9 nodes 4 9 10 12 14
#
LTRSpace  10 nodes 4 10 14 15 12
LTRSpace  11 nodes 4 10 15 11 12
LTRSpace  12 nodes 4 14 16 15 12
#
IntElSurfTr1 13 nodes 6 2 7 6 9 16 13
IntElSurfTr1 14 nodes 6 2 3 7 9 12 16
#
SimpleCS 1 thick 1.0 material 1 set 1
InterfaceCS 2 material 2 set 2
IsoLE 1 d 0.0 E 15.0 n 0.25 tAlpha 0.000012
IntMatIsoDamage 2 ks 15.e3 kn 10.e3 ft 10.0 gf 20.0 
BoundaryCondition 1 loadTimeFunction 1 dofs 1 1 values 1 0.0 set 4
BoundaryCondition 2 loadTimeFunction 1 dofs 1 2 values 1 0.0 set 5
BoundaryCondition 3 loadTimeFunction 1 dofs 1 3 values 1 0.0 set 6
ConstantSurfaceLoad 4 loadType 2 dofs 3 1 2 3 Components 3 0.0 1.0 0.0 loadTimeFunction 1 set 3
ConstantFunction 1 f(t) 1.0
Set 1 elementranges {(1 12)}
Set 2 elementranges {(13 14)}
Set 3 elementboundaries 4 10 1  11 1
Set 4 nodes 2 4 8
Set 5 nodes 4 1 4 5 8
Set 6 nodes 2 1 4
#
#
#
#%BEGIN_CHECK% tolerance 2.e-4
##
##
## check reactions 
#REACTION tStep 1 number 1 dof 2 value -1.3333e-02
#REACTION tStep 1 number 4 dof 2 value -6.6667e-03
#REACTION tStep 1 number 5 dof 2 value -6.6667e-03
#REACTION tStep 1 number 8 dof 2 value -1.3333e-02
#REACTION tStep 1 number 1 dof 3 value 0.0
#REACTION tStep 1 number 4 dof 1 value 0.0
#REACTION tStep 1 number 4 dof 3 value 0.0
#REACTION tStep 1 number 8 dof 1 value 0.0
## check all nodes
#NODE tStep 1 number 1 dof 1 unknown d value -3.33333333e-03
#NODE tStep 1 number 2 dof 1 unknown d value -3.33333333e-03
#NODE tStep 1 number 2 dof 2 unknown d value  1.33333333e-02
#NODE tStep 1 number 2 dof 3 unknown d value  0.0
#NODE tStep 1 number 3 dof 1 unknown d value  0.0
#NODE tStep 1 number 3 dof 2 unknown d value  1.33333333e-02
#NODE tStep 1 number 3 dof 3 unknown d value  0.0
#NODE tStep 1 number 5 dof 1 unknown d value -3.33333333e-03
#NODE tStep 1 number 5 dof 3 unknown d value -3.33333333e-03
#NODE tStep 1 number 6 dof 1 unknown d value -3.33333333e-03
#NODE tStep 1 number 6 dof 2 unknown d value  1.33333333e-02
#NODE tStep 1 number 6 dof 3 unknown d value -3.33333333e-03
#NODE tStep 1 number 7 dof 1 unknown d value  0.0
#NODE tStep 1 number 7 dof 2 unknown d value  1.33333333e-02
#NODE tStep 1 number 7 dof 3 unknown d value -3.33333333e-03
#NODE tStep 1 number 8 dof 3 unknown d value -3.33333333e-03
#NODE tStep 1 number 9 dof 1 unknown d value -3.33333333e-03
#NODE tStep 1 number 9 dof 2 unknown d value  1.34333333e-02
#NODE tStep 1 number 9 dof 3 unknown d value  0.0
#NODE tStep 1 number 10 dof 1 unknown d value -3.33333333e-03
# ... 20 like lines cut
##
#%END_CHECK%
