layeredcs03.out
Test of Beam2d elements -> cantilever loaded by end moment, comparing elastic integral and layered models
StaticStructural nsteps 2 nmodules 1
#linearstatic nsteps 2 nmodules 1 
errorcheck
domain 2dBeam
OutputManager tstep_all dofman_all element_all
ndofman 4 nelem 2 ncrosssect 2 nmat 1 nbc 2 nic 0 nltf 1 nset 4
node 1 coords 3 0.  0.  0.
node 2 coords 3 3.  0.  0.
node 11 coords 3 0 0 0
node 12 coords 3 3. 0 0
Beam2d 1 nodes 2 1 2
Beam2d 11 nodes 2 11 12
SimpleCS 1 thick 0.3 width 1.0 area 0.3 Iy 0.00225 beamShearCoeff 1.0 material 1 set 1
LayeredCS 2 nLayers 2 LayerMaterials 2 1 1 Thicks 2 0.15 0.15  Widths 2 1. 1. midSurf 0.15 nintegrationpoints 2 set 2
IsoLE 1 d 0. E 15000000.0 n 0.25 talpha 0.0
BoundaryCondition  1 loadTimeFunction 1 dofs 3 1 3 5 values 3 0 0 0 set 3
NodalLoad 2 loadTimeFunction 1 dofs 1 3 Components 1 0.1 set 4 
ConstantFunction 1 f(t) 1.0
Set 1 elements 1 1
Set 2 elements 1 11
Set 3 nodes 2 1 11
Set 4 nodes 2 2 12
#
#
# beam exact solution:
#  load-level 1.0 -> end of elastic behaviour and begining of elasto-
#  plastic behaviour
#
#  at load-level 1.5 -> vycerpana unosnost -kolaps.
#
#
#
#
#%BEGIN_CHECK% tolerance 1.e-12
## check load levels
## check node displacement at final step
#NODE tStep 1 number 2 dof 1 unknown d value 0.0
#NODE tStep 1 number 2 dof 3 unknown d value 2.68333333e-05
#NODE tStep 1 number 2 dof 5 unknown d value -1.33333333e-05
#NODE tStep 1 number 12 dof 1 unknown d value 0.0
#NODE tStep 1 number 12 dof 3 unknown d value 2.68333333e-05
#NODE tStep 1 number 12 dof 5 unknown d value -1.33333333e-05
## check elements
#REACTION tStep 1 number 1 dof 3 value -0.1
#REACTION tStep 1 number 1 dof 5 value  0.3
#REACTION tStep 1 number 11 dof 3 value -0.1
#REACTION tStep 1 number 11 dof 5 value  0.3
#
#
#%END_CHECK%

