libean3dnl.out
Non-Linear cantiliver
#LinearStatic 1 nsteps 1
#LinearStability nroot 4 rtolv 1.e-8
NonLinearStatic nsteps 6 maxiter 30 stepLength 1.0471976 minStepLength 1.0471976  rtolf 1e-4 Psi 0.0 manrmsteps 1 HPC 2 9 6 nmodules 1
errorcheck
domain 3dShell 
OutputManager tstep_all dofman_all element_all
ndofman 10 nelem 8 ncrosssect 1 nmat 1 nbc 2 nic 0 nltf 1 nset 3
node 1 coords 3 0.   0.    0.
node 2 coords 3 1.   0.    0.0
node 3 coords 3 2.   0.    0.0
node 4 coords 3 3.0  0.    0.0
node 5 coords 3 4.0  0.    0.0
node 6 coords 3 5.   0.    0. 
node 7 coords 3 6.   0.    0.0
node 8 coords 3 7.   0.    0.0
node 9 coords 3 8.0  0.    0.0
# common reference node
node 10 coords 3 8.0  8.    0.0
#
LIBeam3dNL 1 nodes 2 1 2 refnode 10 nlgeo 1
LIBeam3dNL 2 nodes 2 2 3 refnode 10 nlgeo 1
LIBeam3dNL 3 nodes 2 3 4 refnode 10 nlgeo 1
LIBeam3dNL 4 nodes 2 4 5 refnode 10 nlgeo 1
LIBeam3dNL 5 nodes 2 5 6 refnode 10 nlgeo 1
LIBeam3dNL 6 nodes 2 6 7 refnode 10 nlgeo 1
LIBeam3dNL 7 nodes 2 7 8 refnode 10 nlgeo 1
LIBeam3dNL 8 nodes 2 8 9 refnode 10 nlgeo 1
#
SimpleCS 1 area 1.0 Iy 1.0 Iz 1.0 Ik 1.0  beamShearCoeff 1.0 material 1 set 1
IsoLE 1 d 1.0 E 1.0 n 0.2 tAlpha 1.2e-5
BoundaryCondition  1 loadTimeFunction 1 dofs 6 1 2 3 4 5 6 values 6 0 0 0 0 0 0 set 2
NodalLoad 2 loadTimeFunction 1 dofs 1 6 Components 1 0.78539816 set 3
ConstantFunction 1 f(t) 1.
Set 1 elementranges {(1 8)}
Set 2 nodes 2 1 10
Set 3 nodes 1 9
#
#
#%BEGIN_CHECK%
#LOADLEVEL tStep 6 value 1.0
##
#NODE tStep 6 number 9 dof 1 unknown d value -8.0
#NODE tStep 6 number 9 dof 2 unknown d value  0.0
##
#ELEMENT tStep 6 number 1 gp 1 keyword 1 component 1  value 0.0
#ELEMENT tStep 6 number 1 gp 1 keyword 1 component 2  value 0.0
#ELEMENT tStep 6 number 1 gp 1 keyword 1 component 6  value 7.85398200e-01
##
#ELEMENT tStep 6 number 8 gp 1 keyword 1 component 1  value 0.0
#ELEMENT tStep 6 number 8 gp 1 keyword 1 component 2  value 0.0
#ELEMENT tStep 6 number 8 gp 1 keyword 1 component 6  value 7.85398200e-01
##
#REACTION tStep 6 number 1 dof 1 value 0.0
#REACTION tStep 6 number 1 dof 2 value 0.0
#REACTION tStep 6 number 1 dof 3 value 0.0
#REACTION tStep 6 number 1 dof 4 value 0.0
#REACTION tStep 6 number 1 dof 5 value 0.0
#REACTION tStep 6 number 1 dof 6 value -7.853982e-01
#%END_CHECK%
