linkslip01.out
Test case for LinkSlip interface material - rebar pull-out in 3D.
StaticStructural nsteps 20 deltat 1.0 rtolf 1.0e-3 MaxIter 500 initialguess 1 nmodules 1
errorcheck
#vtkxml tstep_all domain_all primvars 1 1
#vtkxml tstep_all domain_all ipvars 2 98 99 regionsets 1 3
#matlab tstep_all integrationpoints internalvars 2 98 99
domain 3d
OutputManager tstep_all dofman_all element_all
ndofman 14 nelem 5 ncrosssect 3 nmat 3 nbc 4 nic 0 nltf 1 nset 6
node 1 coords 3 -0.1 -0.1 0.1
node 2 coords 3 -0.1 0.0 0.1
node 3 coords 3 0.1 0.0 0.1
node 4 coords 3 0.1 -0.1 0.1
node 5 coords 3 -0.1 -0.1 -0.1
node 6 coords 3 -0.1 0.0 -0.1
node 7 coords 3 0.1 0.0 -0.1
node 8 coords 3 0.1 -0.1 -0.1
node 9 coords 3 -0.1 0.1 0.1
node 10 coords 3 0.1 0.1 0.1
node 11 coords 3 -0.1 0.1 -0.1
node 12 coords 3 0.1 0.1 -0.1
node 13 coords 3 -0.1 0.0 0.2 dofidmask 6 1 2 3 4 5 6
node 14 coords 3 0.1 0.0 0.2 dofidmask 6 1 2 3 4 5 6
lspace 1 nodes 8 1 2 3 4 5 6 7 8
lspace 2 nodes 8 2 9 10 3 6 11 12 7
libeam3d 3 nodes 2 13 14 refnode 9
bondlink3d 4 nodes 2 13 2 dirvector 3 1 0 0 length 0.1 length_end 5.000000e-02 diameter 0.02
bondlink3d 5 nodes 2 14 3 dirvector 3 1 0 0 length 0.1 length_end 7.161990e-02 diameter 0.02
Set 1 elements 2 1 2
Set 2 elements 1 3
Set 3 elements 2 4 5
Set 4 nodes 1 1
Set 5 nodes 2 1 4
Set 6 nodes 1 14
SimpleCS 1 material 1 set 1
SimpleCS 2 area 3.1416e-4 material 2 set 2
interfacecs 3 material 3 set 3
IsoLE 1 d 1.0 E 3.36e10 n 0.2 tAlpha 1.0
IsoLE 2 d 1.0 E 2e11 n 0.3 tAlpha 1.0
linkslip 3 kn 6.135e10 kl 6.135e13 type 2 alpha 0.4 s1 1.e-3 s2 2e-3 s3 6.5e-3 t0 1.541e7 tf 6.164e6
BoundaryCondition 1 loadTimeFunction 1 dofs 3 1 2 3 values 3 0 0 0 set 4
BoundaryCondition 2 loadTimeFunction 1 dofs 2 2 3 values 2 0 0 set 5
BoundaryCondition 3 loadTimeFunction 1 dofs 3 4 5 6 values 3 0 0 0 set 2
BoundaryCondition 4 loadTimeFunction 1 dofs 1 1 values 1 8e-3 set 6
PiecewiseLinFunction 1 t 2 0.0 20.0 f(t) 2 0.0 1.0

#%BEGIN_CHECK% tolerance 1.e1
##Bond stress values check
#ELEMENT tStep 1 number 5 gp 1 keyword 99 component 1 value 9.54332268e+06
#ELEMENT tStep 5 number 5 gp 1 keyword 99 component 1 value 1.54100000e+07
#ELEMENT tStep 8 number 5 gp 1 keyword 99 component 1 value 1.32375379e+07
#ELEMENT tStep 15 number 5 gp 1 keyword 99 component 1 value 7.35417846e+06
#ELEMENT tStep 19 number 5 gp 1 keyword 99 component 1 value 6.16400000e+06
##
#%END_CHECK%
