linstab_beam2d.out
Linear stability of cantiliver
#LinearStatic 1 nsteps 1
LinearStability nroot 9 rtolv 1.e-8 nmodules 1
errorcheck
domain 2dBeam
OutputManager tstep_all dofman_all element_all
ndofman 4 nelem 3 ncrosssect 1 nmat 1 nbc 2 nic 0 nltf 1 nset 3
node 1 coords 3 0.   0.    0.0
node 2 coords 3 0.   0.    1.0
node 3 coords 3 0.   0.    2.0
node 4 coords 3 0.0  0.    3.0
#
Beam2d 1 nodes 2 1 2
Beam2d 2 nodes 2 2 3
Beam2d 3 nodes 2 3 4
#
SimpleCS 1 area 0.0054  Iy 85.e-6  beamShearCoeff 1.e60 material 1 set 1
IsoLE 1 d 25.0 E 21.e7 n 0.2 tAlpha 1.2e-5
BoundaryCondition 1 loadTimeFunction 1 dofs 3 1 3 5 values 3 3 0 0 set 2
NodalLoad 2 loadTimeFunction 1 dofs 3 1 3 5 Components 3 0.0 -1.0 0.0 set 3
ConstantFunction 1 f(t) 1.
Set 1 elementranges {(1 3)}
Set 2 nodes 1 1
Set 3 nodes 1 4
#
#
#%BEGIN_CHECK% tolerance 5.e-2
## check eigen values
#EIGVAL tStep 0 EigNum 1 value 4.89418251e+03
#EIGVAL tStep 0 EigNum 2 value 4.43744163e+04
#EIGVAL tStep 0 EigNum 3 value 1.28120733e+05
#EIGVAL tStep 0 EigNum 4 value 2.88085313e+05
#EIGVAL tStep 0 EigNum 5 value 5.74425584e+05 
#EIGVAL tStep 0 EigNum 6 value 9.80936136e+05
## unble to compute 7,8,9-th eigval on SP02 (7,8 with -O2)
#EIGVAL tStep 0 EigNum 7 value 8.50500000e+09
#EIGVAL tStep 0 EigNum 8 value 8.50500000e+09
#EIGVAL tStep 0 EigNum 9 value 8.50500000e+09
#%END_CHECK%

