lshape.oofem.out
Plane stress example
adaptlinearstatic nsteps 1 meshpackage 3 eetype 1 normtype 1 requiredError 0.1 minelemsize 0.0001 nmodules 1
errorcheck
domain 2dPlaneStress
OutputManager tstep_all dofman_all element_all
ndofman 29 nelem 39 ncrosssect 1 nmat 1 nbc 3 nic 0 nltf 1 nset 4
node 1 coords 3 1.000000e+00 0.000000e+00 0.000000e+00
node 2 coords 3 1.500000e+00 0.000000e+00 0.000000e+00
node 3 coords 3 1.500000e+00 1.500000e+00 0.000000e+00
node 4 coords 3 0.000000e+00 1.500000e+00 0.000000e+00
node 5 coords 3 0.000000e+00 1.000000e+00 0.000000e+00
node 6 coords 3 1.250000e+00 0.000000e+00 0.000000e+00
node 7 coords 3 1.500000e+00 3.360080e-01 0.000000e+00
node 8 coords 3 1.500000e+00 6.720159e-01 0.000000e+00
node 9 coords 3 1.500000e+00 1.037634e+00 0.000000e+00
node 10 coords 3 1.037634e+00 1.500000e+00 0.000000e+00
node 11 coords 3 6.720159e-01 1.500000e+00 0.000000e+00
node 12 coords 3 3.360080e-01 1.500000e+00 0.000000e+00
node 13 coords 3 0.000000e+00 1.250000e+00 0.000000e+00
node 14 coords 3 3.120260e-01 9.500736e-01 0.000000e+00
node 15 coords 3 5.884672e-01 8.085211e-01 0.000000e+00
node 16 coords 3 8.085211e-01 5.884672e-01 0.000000e+00
node 17 coords 3 9.500736e-01 3.120260e-01 0.000000e+00
node 18 coords 3 1.147966e+00 2.581076e-01 0.000000e+00
node 19 coords 3 1.338799e+00 2.132158e-01 0.000000e+00
node 20 coords 3 2.131268e-01 1.338646e+00 0.000000e+00
# ... 9 like lines cut
TrPlaneStress2d 1 nodes 3 1 6 18
TrPlaneStress2d 2 nodes 3 6 2 19
TrPlaneStress2d 3 nodes 3 4 13 20
TrPlaneStress2d 4 nodes 3 13 5 21
TrPlaneStress2d 5 nodes 3 2 7 19
TrPlaneStress2d 6 nodes 3 7 8 22
TrPlaneStress2d 7 nodes 3 8 9 23
TrPlaneStress2d 8 nodes 3 9 3 24
TrPlaneStress2d 9 nodes 3 3 10 24
TrPlaneStress2d 10 nodes 3 10 11 25
TrPlaneStress2d 11 nodes 3 11 12 26
TrPlaneStress2d 12 nodes 3 12 4 20
TrPlaneStress2d 13 nodes 3 5 14 21
TrPlaneStress2d 14 nodes 3 14 15 27
TrPlaneStress2d 15 nodes 3 15 16 28
TrPlaneStress2d 16 nodes 3 16 17 29
TrPlaneStress2d 17 nodes 3 17 1 18
TrPlaneStress2d 18 nodes 3 18 6 19
TrPlaneStress2d 19 nodes 3 20 13 21
TrPlaneStress2d 20 nodes 3 19 7 22
# ... 19 like lines cut
SimpleCS 1 thick 1.0 material 1 set 1
IsoLE 1  E 210.e3  n 0.3  d 1.0 talpha 1.0
BoundaryCondition 1 loadTimeFunction 1 dofs 1 1 values 1 0.0 set 2
BoundaryCondition 2 loadTimeFunction 1 dofs 1 2 values 1 0.0 set 3
Constantsurfaceload 3 loadTimeFunction 1 loadtype 2 dofs 2 1 2 Components 2 1.0 0.0 set 4
ConstantFunction 1 f(t) 1.0
Set 1 elementranges {(1 39)}
Set 2 nodes 3 4 5 13
Set 3 nodes 3 1 2 6
Set 4 elementboundaries 8 5 1  6 1  7 1  8 1

#%BEGIN_CHECK% tolerance 1.e-4
##ERRORESTIMATE tStep 1 value 38.63
#ELEMENT tStep 1 number 1 gp 1 keyword 32 component 1 value 0.000571994
#ELEMENT tStep 1 number 2 gp 1 keyword 32 component 1 value 0.000370381
#ELEMENT tStep 1 number 3 gp 1 keyword 32 component 1 value 0.000368235
#ELEMENT tStep 1 number 4 gp 1 keyword 32 component 1 value 0.000606187
#ELEMENT tStep 1 number 5 gp 1 keyword 32 component 1 value 0.000921584
#ELEMENT tStep 1 number 6 gp 1 keyword 32 component 1 value 0.000534946
#ELEMENT tStep 1 number 7 gp 1 keyword 32 component 1 value 0.000153139
#ELEMENT tStep 1 number 8 gp 1 keyword 32 component 1 value 6.40333e-05
#ELEMENT tStep 1 number 9 gp 1 keyword 32 component 1 value 0.000137147
#ELEMENT tStep 1 number 10 gp 1 keyword 32 component 1 value 0.000254306
#ELEMENT tStep 1 number 11 gp 1 keyword 32 component 1 value 0.000541737
#ELEMENT tStep 1 number 12 gp 1 keyword 32 component 1 value 0.000804436
#ELEMENT tStep 1 number 13 gp 1 keyword 32 component 1 value 0.00133789
#ELEMENT tStep 1 number 14 gp 1 keyword 32 component 1 value 0.000723566
#ELEMENT tStep 1 number 15 gp 1 keyword 32 component 1 value 0.00014037
#ELEMENT tStep 1 number 16 gp 1 keyword 32 component 1 value 0.000498725
#ELEMENT tStep 1 number 17 gp 1 keyword 32 component 1 value 0.0012754
#ELEMENT tStep 1 number 18 gp 1 keyword 32 component 1 value 0.000619201
#ELEMENT tStep 1 number 19 gp 1 keyword 32 component 1 value 0.000559778
#ELEMENT tStep 1 number 20 gp 1 keyword 32 component 1 value 0.000397925
# ... 19 like lines cut
#%END_CHECK%
