MPS_01_casting_sm.out
basic creep in tension, test includes prediction of paramters q1-q4 based on concrete composition, casting time set to 14 days. Results are identical to test MPS_01_sm.in
#
StaticStructural nsteps 28 prescribedTimes 28 0. 13. 14. 14.0001 14.0002 14.0005 14.001 14.002 14.005 14.01 14.02 14.05 14.1 14.2 14.5 15. 16. 19. 24. 34. 64. 114. 214. 514. 1014. 2014. 5014. 10014.  nmodules 1
#
errorcheck
# vtkxml tstep_step 1 domain_all vars 2 1 4 primvars 1 1 
#
domain 2dPlaneStress
#
OutputManager tstep_all dofman_all element_all
ndofman 8 nelem 2 ncrosssect 2 nmat 3 nbc 3 nic 0 nltf 2 nset 3
#
#
# NODES
#
node   1   coords 3  0.0  0.0  0.0
node   2   coords 3  0.1  0.0  0.0
node   3   coords 3  0.0  0.1  0.0
node   4   coords 3  0.1  0.1  0.0
#
node   5   coords 3  0.0  0.2  0.0
node   6   coords 3  0.1  0.2  0.0
node   7   coords 3  0.0  0.3  0.0
node   8   coords 3  0.1  0.3  0.0
#
#
# ELEMENTS
#
planestress2d   1   nodes 4   1 2 4 3 crossSect 1
#
planestress2d   2   nodes 4   5 6 8 7 crossSect 2
#
#
# CROSSECTION
#
SimpleCS 1 thick 1.0 width 1.0 material 1
SimpleCS 2 thick 1.0 width 1.0 material 2
#
#
# MATERIAL
#
mps 1 d 0. n 0.2 talpha 12.e-6 referencetemperature 296. mode 0 fc 30. cc 350. w/c 0.5 a/c 6. stiffnessfactor 1.e6  timefactor 1. lambda0 1. begoftimeofinterest 1.e-6 endoftimeofinterest 1.e4 relMatAge 7. CoupledAnalysisType 0 castingTime 14. preCastingTimeMat 3
#
mps 2 d 0. n 0.2 talpha 12.e-6 referencetemperature 296. mode 1 q1 23.13994709e-6 q2 162.4555762e-6 q3 2.944507318e-6 q4 5.791488024e-6 timefactor 1. lambda0 1. begoftimeofinterest 1.e-6 endoftimeofinterest 1.e4 relMatAge 7. CoupledAnalysisType 0 castingTime 14. preCastingTimeMat 3
#
#
IsoLE 3 d 0. n 0.2 E 1.e-6 talpha 0.
#
BoundaryCondition 1 loadTimeFunction 1 dofs 2 1 2 values 2 0. 0. set 1
BoundaryCondition 2 loadTimeFunction 1 dofs 1 1 values 1 0. set 2
NodalLoad 3 loadTimeFunction 2 dofs 2 1 2 Components 2 0.05 0. set 3
#
#
# TIME FUNCTION
#
ConstantFunction 1 f(t) 1.0
# ConstantFunction 2 f(t) 1.0
HeavisideLTF 2 origin 14. value 1.0
#
Set 1 nodes 2 1 5
Set 2 nodes 2 3 7
Set 3 nodes 4 2 4 6 8
#
#%BEGIN_CHECK% tolerance 1.e-11
#NODE tStep 7  number 2 dof 1 unknown d value 4.925232e-06
#NODE tStep 13 number 2 dof 1 unknown d value 6.091198e-06
#NODE tStep 19 number 2 dof 1 unknown d value 7.907595e-06
#NODE tStep 25 number 2 dof 1 unknown d value 1.073072e-05
#NODE tStep 28 number 2 dof 1 unknown d value 1.208951e-05 
#NODE tStep 7  number 6 dof 1 unknown d value 4.925232e-06
#NODE tStep 13 number 6 dof 1 unknown d value 6.091198e-06
#NODE tStep 19 number 6 dof 1 unknown d value 7.907595e-06
#NODE tStep 25 number 6 dof 1 unknown d value 1.073072e-05
#NODE tStep 28 number 6 dof 1 unknown d value 1.208951e-05 
#%END_CHECK%
