patch200.out
"Patch test of CCT elements -> pure bending"
LinearStatic nsteps 1
domain 2dMindlinPlate
OutputManager tstep_all dofman_all element_all
ndofman 5 nelem 4 ncrosssect  1 nmat 1 nbc 2 nic 0 nltf 1
node 1 coords 3  0.0  0.0  0.0   bc 3 1 1 1
node 2 coords 3  0.0  4.0  0.0   bc 3 1 1 1
node 3 coords 3  3.0  1.0  0.0   bc 3 0 1 0
node 4 coords 3  9.0  0.0  0.0   bc 3 0 1 0 load 1 2
node 5 coords 3  9.0  4.0  0.0   bc 3 0 1 0 load 1 2
CCTPlate 1 nodes 3  1 3 2  mat 1 NIP 1 crossSect 1
CCTPlate 2 nodes 3  1 4 3  mat 1 NIP 1 crossSect 1
CCTPlate 3 nodes 3  3 5 2  mat 1 NIP 1 crossSect 1
CCTPlate 4 nodes 3  3 4 5  mat 1 NIP 1 crossSect 1
SimpleCS 1 thick 0.3 
IsoLE 1 d 2500.  E 15.0  n 0.25 tAlpha 0.000012
BoundaryCondition  1 loadTimeFunction 1 prescribedvalue 0.0 
NodalLoad 2 loadTimeFunction 1 Components 3 0.0 0.0 -2.5
ConstantFunction 1 f(t) 1.0
#
#  exact solution
#
#  DISPLACEMENT             w        fi_y
#
#  node 1                  0.0         0.0
#  node 2                  0.0         0.0
#  node 3                156.25     -104.166666666
#  node 4               1406.25     -312.5
#  node 5               1406.25     -312.5
#
#         STRAIN                     STRESS
#
#   kapa_x  = -0.520833333     m_x  = -1.25
#   kapa_y  =  0.0             m_y  = -0.3125
#   kapa_xy =  0.0             m_xy =  0.0
#   gama_xz =  0.0             q_x  =  0.0
#   gama_yz =  0.0             q_y  =  0.0
#
#
#
#     node 1   R_w = 0.0   R_fi_x =  1.40625  R_fi_y = 2.5
#     node 2   R_w = 0.0   R_fi_x = -1.40625  R_fi_y = 2.5
#
#
#%BEGIN_CHECK% tolerance 1.e-4
## check reactions 
#REACTION tStep 1 number 1 dof 1 value 0.0
#REACTION tStep 1 number 1 dof 2 value  -1.40625e+00
#REACTION tStep 1 number 1 dof 3 value  2.5
#REACTION tStep 1 number 2 dof 1 value 0.0
#REACTION tStep 1 number 2 dof 2 value 1.40625e+00
#REACTION tStep 1 number 2 dof 3 value 2.5
## check all nodes
#NODE tStep 1 number 3 dof 1 unknown d value 1.56250000e+02
#NODE tStep 1 number 3 dof 3 unknown d value -1.04166667e+02
#NODE tStep 1 number 4 dof 1 unknown d value 1.40625000e+03
#NODE tStep 1 number 4 dof 3 unknown d value -3.12500000e+02
#NODE tStep 1 number 5 dof 1 unknown d value 1.40625000e+03
#NODE tStep 1 number 5 dof 3 unknown d value -3.12500000e+02
## check element no. 1 stress vector
#ELEMENT tStep 1 number 1 gp 1 keyword "stresses" component 7  value -1.2500e+00
#ELEMENT tStep 1 number 1 gp 1 keyword "stresses" component 8  value -3.1250e-01 
##
#ELEMENT tStep 1 number 2 gp 1 keyword "stresses" component 7  value -1.2500e+00
#ELEMENT tStep 1 number 2 gp 1 keyword "stresses" component 8  value -3.1250e-01 
##
#ELEMENT tStep 1 number 3 gp 1 keyword "stresses" component 7  value -1.2500e+00
#ELEMENT tStep 1 number 3 gp 1 keyword "stresses" component 8  value -3.1250e-01 
##
#ELEMENT tStep 1 number 4 gp 1 keyword "stresses" component 7  value -1.2500e+00
#ELEMENT tStep 1 number 4 gp 1 keyword "stresses" component 8  value -3.1250e-01 
#ELEMENT tStep 1 number 4 gp 1 keyword "stresses" component 4  value 0.0
#ELEMENT tStep 1 number 4 gp 1 keyword "stresses" component 5  value 0.0
#%END_CHECK%
#
#