patch010.out
Patch test of Truss2d elements -> temperature load
LinearStatic nsteps 1 nmodules 1
errorcheck
domain 2dTruss
OutputManager tstep_all dofman_all element_all
ndofman 5 nelem 4 ncrosssect 1 nmat 1 nbc 3 nic 0 nltf 1 nset 3
Node 1 coords 3  0.  0.  0.
Node 2 coords 3  2.  0.  0.
Node 3 coords 3  4.  0.  0.
Node 4 coords 3  6.  0.  0.
Node 5 coords 3  8.  0.  0.
Truss2d 1 nodes 2 1 2 bodyLoads 1 3
Truss2d 2 nodes 2 2 3 bodyLoads 1 3
Truss2d 3 nodes 2 3 4 bodyLoads 1 3
Truss2d 4 nodes 2 4 5 bodyLoads 1 3
SimpleCS 1 thick 0.1 width 10.0 material 1 set 1
IsoLE 1  tAlpha 0.000012  d 1.0  E 1.0  n 0.2
BoundaryCondition  1 loadTimeFunction 1 dofs 2 1 3 values 2 0.0 0.0 set 2
BoundaryCondition  2 loadTimeFunction 1 dofs 1 3 values 1 0.0 set 3
StructTemperatureLoad 3 loadTimeFunction 1 Components 2 30.0 0.0
ConstantFunction 1 f(t) 1.0
Set 1 elementranges {(1 4)}
Set 2 nodes 2 1 5
Set 3 nodes 3 2 3 4
#
#
#%BEGIN_CHECK% tolerance 1.e-8
## check reactions
#REACTION tStep 1 number 1 dof 1 value 3.6000e-04
#REACTION tStep 1 number 1 dof 3 value 0.0
#REACTION tStep 1 number 2 dof 3 value 0.0
#REACTION tStep 1 number 3 dof 3 value 0.0
#REACTION tStep 1 number 4 dof 3 value 0.0
#REACTION tStep 1 number 5 dof 1 value -3.6000e-04
#REACTION tStep 1 number 5 dof 3 value 0.0
## check all nodes
#NODE tStep 1 number 1 dof 1 unknown d value 0.0
#NODE tStep 1 number 2 dof 1 unknown d value 0.0
#NODE tStep 1 number 3 dof 1 unknown d value 0.0
#NODE tStep 1 number 4 dof 1 unknown d value 0.0
#NODE tStep 1 number 5 dof 1 unknown d value 0.0
##
#NODE tStep 1 number 1 dof 3 unknown d value 0.0
#NODE tStep 1 number 2 dof 3 unknown d value 0.0
#NODE tStep 1 number 3 dof 3 unknown d value 0.0
#NODE tStep 1 number 4 dof 3 unknown d value 0.0
#NODE tStep 1 number 5 dof 3 unknown d value 0.0
## check element no. 1 strain vector
#ELEMENT tStep 1 number 1 gp 1 keyword 4 component 1  value 0.0
#ELEMENT tStep 1 number 2 gp 1 keyword 4 component 1  value 0.0
#ELEMENT tStep 1 number 3 gp 1 keyword 4 component 1  value 0.0
#ELEMENT tStep 1 number 4 gp 1 keyword 4 component 1  value 0.0
## check element no. 1 stress vector
#ELEMENT tStep 1 number 1 gp 1 keyword 1 component 1  value -3.6000e-04
#ELEMENT tStep 1 number 2 gp 1 keyword 1 component 1  value -3.6000e-04
#ELEMENT tStep 1 number 3 gp 1 keyword 1 component 1  value -3.6000e-04
#ELEMENT tStep 1 number 4 gp 1 keyword 1 component 1  value -3.6000e-04
##
#%END_CHECK%
