patch105.out
Rotated Patch test of PlaneStress2d elements -> pure compression in x direction in global c.s.
LinearStatic nsteps 1 nmodules 1
errorcheck
domain 2dPlaneStress
OutputManager tstep_all dofman_all element_all
ndofman 8 nelem 5 ncrosssect 1 nmat 1 nbc 3 nic 0 nltf 1 nset 3
node 1 coords 2  0.0        0.0        lcs 6 0.8660254 0.5 0.0 -0.5 0.8660254 0.0
node 2 coords 2  -2.0       3.46410162 lcs 6 0.8660254 0.5 0.0 -0.5 0.8660254 0.0
node 3 coords 2  0.73205081 2.73205081 lcs 6 0.8660254 0.5 0.0 -0.5 0.8660254 0.0
node 4 coords 2  2.09807621 2.36602540 lcs 6 0.8660254 0.5 0.0 -0.5 0.8660254 0.0
node 5 coords 2  6.52820323 4.69282032 lcs 6 0.8660254 0.5 0.0 -0.5 0.8660254 0.0
node 6 coords 2  4.56217783 6.09807621 lcs 6 0.8660254 0.5 0.0 -0.5 0.8660254 0.0
node 7 coords 2  7.79422863 4.5        lcs 6 0.8660254 0.5 0.0 -0.5 0.8660254 0.0
node 8 coords 2  5.79422863 7.96410162 lcs 6 0.8660254 0.5 0.0 -0.5 0.8660254 0.0
PlaneStress2d 1 nodes 4 1 4 3 2
PlaneStress2d 2 nodes 4 1 7 5 4
PlaneStress2d 3 nodes 4 4 5 6 3
PlaneStress2d 4 nodes 4 3 6 8 2
PlaneStress2d 5 nodes 4 5 7 8 6 boundaryLoads 2 3 2
SimpleCS 1 thick 0.15 material 1 set 1
IsoLE 1 d 0. E 15.0 n 0.25 tAlpha 0.000012
BoundaryCondition 1 loadTimeFunction 1 dofs 1 2 values 1 0 set 1
BoundaryCondition 2 loadTimeFunction 1 dofs 1 1 values 1 0 set 2
ConstantEdgeLoad 3 loadTimeFunction 1 dofs 2 1 2 Components 2 -1.08253175 -0.62500000 loadType 3 set 0
ConstantFunction 1 f(t) 1.0
Set 1 elementranges {(1 5)}
Set 2 nodes 2 1 2
Set 3 elementboundaries 2 5 2
#
#
#
#%BEGIN_CHECK% tolerance 1.e-4
## check reactions 
#REACTION tStep 1 number 1 dof 1 value 2.5
#REACTION tStep 1 number 1 dof 2 value 1.40625
#REACTION tStep 1 number 2 dof 1 value 2.5
#REACTION tStep 1 number 2 dof 2 value -1.40625
#REACTION tStep 1 number 7 dof 2 value 1.40625
#REACTION tStep 1 number 8 dof 2 value -1.40625
## check all nodes
#NODE tStep 1 number 3 dof 1 unknown d value -1.041666666
#NODE tStep 1 number 4 dof 1 unknown d value -1.5625
#NODE tStep 1 number 5 dof 1 unknown d value -4.166666666
#NODE tStep 1 number 6 dof 1 unknown d value -3.645833333
#NODE tStep 1 number 7 dof 1 unknown d value -4.6875
#NODE tStep 1 number 8 dof 1 unknown d value -4.6875
## check element no. 1 stress vector
#ELEMENT tStep 1 number 1 gp 1 keyword 1 component 1  value -6.7708e+00
#ELEMENT tStep 1 number 1 gp 1 keyword 1 component 2  value -3.6458e+00
#ELEMENT tStep 1 number 1 gp 1 keyword 1 component 6  value -2.7063e+00
##
#ELEMENT tStep 1 number 2 gp 2 keyword 1 component 1  value -6.7708e+00
#ELEMENT tStep 1 number 2 gp 2 keyword 1 component 2  value -3.6458e+00
#ELEMENT tStep 1 number 2 gp 2 keyword 1 component 6  value -2.7063e+00
##
#ELEMENT tStep 1 number 3 gp 3 keyword 1 component 1  value -6.7708e+00
#ELEMENT tStep 1 number 3 gp 3 keyword 1 component 2  value -3.6458e+00
#ELEMENT tStep 1 number 3 gp 3 keyword 1 component 6  value -2.7063e+00
##
#ELEMENT tStep 1 number 4 gp 4 keyword 1 component 1  value -6.7708e+00
#ELEMENT tStep 1 number 4 gp 4 keyword 1 component 2  value -3.6458e+00
#ELEMENT tStep 1 number 4 gp 4 keyword 1 component 6  value -2.7063e+00
#%END_CHECK%
#
#
#  exact solution
#
#  DISPLACEMENT                   STRAIN                     STRESS
#
#  node 1   0.0                epsilon_x = -0.520833333   sigma_x = -8.333333333
#  node 2   0.0                epsilon_y =  0.0           sigma_y = -2.083333333
#  node 3  -1.041666666        gama_xy   =  0.0           tau_xy  =  0.0
#  node 4  -1.5625
#  node 5  -4.166666666
#  node 6  -3.645833333           REACTION
#  node 7  -4.6875             node 1   R_u = 2.5   R_v =  1.40625
#  node 8  -4.6875             node 2   R_u = 2.5   R_v = -1.40625
#                              node 7   R_u = 0.0   R_v =  1.40625
#                              node 8   R_u = 0.0   R_v = -1.40625
#
#
