#
# shear patch test of plane stress TrPlaneStress2d  elements
# (c) Borek Patzak
#
patch108.out
PATCH TEST OF TrPlaneStress2d ELEMENTS
#domain section
LinearStatic nsteps 1 nmodules 1
errorcheck
domain 2dPlaneStressRot
OutputManager tstep_all dofman_all element_all
#nnode nelem ncrosssect nyield nmat nloa nloatime
ndofman 5 nelem 4 ncrosssect 1 nmat 1 nbc 3 nic 0 nltf 1 nset 3
#node section
Node 1 coords 2 0.0 0.0
Node 2 coords 2 6.0 0.0
Node 3 coords 2 6.0 3.0
Node 4 coords 2 0.0 3.0
Node 5 coords 2 2.0 1.0
#element section
trplanestressrotallman 1 nodes 3 1 2 5
trplanestressrotallman 2 nodes 3 2 3 5
trplanestressrotallman 3 nodes 3 3 4 5
trplanestressrotallman 4 nodes 3 4 1 5
#crossSect section
SimpleCS 1 thick 1.0 material 1 set 1
#material section
IsoLE 1 d 1.0 E 10. n 0.1 tAlpha 0.000012
#load and boundary condition section
BoundaryCondition 1 loadTimeFunction 1 dofs 3 1 2 6 values 3 0 0 0 set 2
BoundaryCondition 2 loadTimeFunction 1 dofs 1 1 values 1 0.0 set 3
NodalLoad 3 loadTimeFunction 1 dofs 3 1 2 6 Components 3 0. 1.5 0.0 set 3
#load time function list
ConstantFunction 1 f(t) 1.0
Set 1 elementranges {(1 4)}
Set 2 nodes 2 1 4
Set 3 nodes 2 2 3
#
#
#
#%BEGIN_CHECK% tolerance 1.e-5
##
## Note: this is the exact solution
##
## check reactions 
#REACTION tStep 1 number 1 dof 1 value -3.0
#REACTION tStep 1 number 1 dof 2 value -1.5
#REACTION tStep 1 number 2 dof 1 value -3.0
#REACTION tStep 1 number 3 dof 1 value  3.0 
#REACTION tStep 1 number 4 dof 1 value  3.0 
#REACTION tStep 1 number 4 dof 2 value -1.5
## check all nodes
#NODE tStep 1 number 1 dof 1 unknown d value 0.0
#NODE tStep 1 number 1 dof 2 unknown d value 0.0
#NODE tStep 1 number 2 dof 1 unknown d value 0.0
#NODE tStep 1 number 2 dof 2 unknown d value 1.32
#NODE tStep 1 number 3 dof 1 unknown d value 0.0
#NODE tStep 1 number 3 dof 2 unknown d value 1.32
#NODE tStep 1 number 4 dof 1 unknown d value 0.0
#NODE tStep 1 number 4 dof 2 unknown d value 0.0
#NODE tStep 1 number 5 dof 1 unknown d value 0.0
#NODE tStep 1 number 5 dof 2 unknown d value 0.44
## check element no. 1 strain vector
#ELEMENT tStep 1 number 1 gp 1 keyword 4 component 1  value 0.0
#ELEMENT tStep 1 number 1 gp 1 keyword 4 component 2  value 0.0
#ELEMENT tStep 1 number 1 gp 1 keyword 4 component 6  value 0.22
## check element no. 1 stress vector
#ELEMENT tStep 1 number 1 gp 1 keyword 1 component 1  value 0.0
#ELEMENT tStep 1 number 1 gp 1 keyword 1 component 2  value 0.0
#ELEMENT tStep 1 number 1 gp 1 keyword 1 component 6  value 1.0
##
#ELEMENT tStep 1 number 2 gp 1 keyword 4 component 1  value 0.0
#ELEMENT tStep 1 number 2 gp 1 keyword 4 component 2  value 0.0
#ELEMENT tStep 1 number 2 gp 1 keyword 4 component 6  value 0.22
#ELEMENT tStep 1 number 2 gp 1 keyword 1 component 1  value 0.0
#ELEMENT tStep 1 number 2 gp 1 keyword 1 component 2  value 0.0
#ELEMENT tStep 1 number 2 gp 1 keyword 1 component 6  value 1.0
##
#ELEMENT tStep 1 number 3 gp 1 keyword 4 component 1  value 0.0
#ELEMENT tStep 1 number 3 gp 1 keyword 4 component 2  value 0.0
#ELEMENT tStep 1 number 3 gp 1 keyword 4 component 6  value 0.22
#ELEMENT tStep 1 number 3 gp 1 keyword 1 component 1  value 0.0
#ELEMENT tStep 1 number 3 gp 1 keyword 1 component 2  value 0.0
#ELEMENT tStep 1 number 3 gp 1 keyword 1 component 6  value 1.0
##
#ELEMENT tStep 1 number 4 gp 1 keyword 4 component 1  value 0.0
#ELEMENT tStep 1 number 4 gp 1 keyword 4 component 2  value 0.0
#ELEMENT tStep 1 number 4 gp 1 keyword 4 component 6  value 0.22
#ELEMENT tStep 1 number 4 gp 1 keyword 1 component 1  value 0.0
#ELEMENT tStep 1 number 4 gp 1 keyword 1 component 2  value 0.0
#ELEMENT tStep 1 number 4 gp 1 keyword 1 component 6  value 1.0
#%END_CHECK%
