patch140.out
Patch test of QTrPlStr elements -> pure compression
LinearStatic nsteps 1 nmodules 1
errorcheck
#vtkxml tstep_all domain_all primvars 1 1 vars 2 1 4 stype 2
domain 2dPlaneStress2D
OutputManager tstep_all dofman_all element_all
ndofman 13 nelem 4 ncrosssect 1 nmat 1 nbc 4 nic 0 nltf 1 nset 4
Node  1 coords 3  0.0  0.0  0.0
node  2 coords 3  0.0  4.0  0.0
node  3 coords 3  3.0  1.0  0.0
node  4 coords 3  9.0  0.0  0.0
node  5 coords 3  9.0  4.0  0.0
node  6 coords 3  0.0  2.0  0.0
node  7 coords 3  1.5  0.5  0.0
node  8 coords 3  1.5  2.5  0.0
node  9 coords 3  4.5  0.0  0.0
node 10 coords 3  4.5  4.0  0.0
node 11 coords 3  6.0  0.5  0.0
node 12 coords 3  6.0  2.5  0.0
node 13 coords 3  9.0  2.0  0.0
QTrPlStr 1 nodes 6  1 3 2  7  8  6
QTrPlStr 2 nodes 6  1 4 3  9 11  7
QTrPlStr 3 nodes 6  2 3 5  8 12 10
QTrPlStr 4 nodes 6  3 4 5 11 13 12
SimpleCS 1 thick 0.15 material 1 set 1
IsoLE 1 d 0. E 15.0 n 0.25 tAlpha 0.000012
BoundaryCondition 1 loadTimeFunction 1 dofs 1 2 values 1 0.0 set 1
BoundaryCondition 2 loadTimeFunction 1 dofs 1 1 values 1 0.0 set 2
NodalLoad 3 loadTimeFunction 1 dofs 2 1 2 Components 2 -0.833333333333 0.0 set 3
NodalLoad 4 loadTimeFunction 1 dofs 2 1 2 Components 2 -3.333333333333 0.0 set 4
ConstantFunction 1 f(t) 1.0
Set 1 elementranges {(1 4)}
Set 2 nodes 3 1 2 6
Set 3 nodes 2 4 5
Set 4 nodes 1 13
#
#  exact solution
#
#  DISPLACEMENT                   STRAIN                     STRESS
#
#  node 1   0.0                epsilon_x = -0.520833333   sigma_x = -8.333333333
#  node 2   0.0                epsilon_y =  0.0           sigma_y = -2.083333333
#  node 3  -1.5625             gama_xy   =  0.0           tau_xy  =  0.0
#  node 4  -4.6875
#  node 5  -4.6875     
#  node 6   0.0                   REACTION
#  node 7  -0.78125            node 1   R_u = 0.8333333333   R_v =  0.46875
#  node 8  -0.78125            node 2   R_u = 0.8333333333   R_v = -0.46875
#  node 9  -2.34375            node 4   R_u = 0.0            R_v =  0.46875
#  node 10 -2.34375            node 5   R_u = 0.0            R_v = -0.46875
#  node 11 -3.125              node 6   R_u = 3.3333333333   R_v =  0.0
#  node 12 -3.125              node 9   R_u = 0.0            R_v =  1.875
#  node 13 -4.6875             node 10  R_u = 0.0            R_v = -1.875
#
#
#%BEGIN_CHECK% tolerance 1.e-4
## check reactions 
#REACTION tStep 1 number 1 dof 1 value 8.3333e-01
#REACTION tStep 1 number 1 dof 2 value 4.6875e-01
#REACTION tStep 1 number 2 dof 1 value 8.3333e-01
#REACTION tStep 1 number 2 dof 2 value -4.6875e-01
#REACTION tStep 1 number 4 dof 2 value 4.6875e-01
#REACTION tStep 1 number 5 dof 2 value -4.6875e-01
#REACTION tStep 1 number 6 dof 1 value 3.3333e+00
#REACTION tStep 1 number 6 dof 2 value 0.0
#REACTION tStep 1 number 9 dof 2 value 1.8750e+00
#REACTION tStep 1 number 10 dof 2 value -1.8750e+00
## check all nodes
#NODE tStep 1 number 3 dof 1 unknown d value -1.56250000e+00
#NODE tStep 1 number 4 dof 1 unknown d value -4.68750000e+00
#NODE tStep 1 number 5 dof 1 unknown d value -4.68750000e+00
#NODE tStep 1 number 6 dof 1 unknown d value 0.0
#NODE tStep 1 number 7 dof 1 unknown d value -7.81250000e-01
#NODE tStep 1 number 8 dof 1 unknown d value -7.81250000e-01
#NODE tStep 1 number 9 dof 1 unknown d value -2.34375000e+00
#NODE tStep 1 number 10 dof 1 unknown d value -2.34375000e+00
#NODE tStep 1 number 11 dof 1 unknown d value -3.12500000e+00
#NODE tStep 1 number 12 dof 1 unknown d value -3.12500000e+00
#NODE tStep 1 number 13 dof 1 unknown d value -4.68750000e+00
## check element no. 1 strain vector
#ELEMENT tStep 1 number 1 gp 1 keyword 4 component 1  value -0.520833333
#ELEMENT tStep 1 number 1 gp 1 keyword 4 component 2  value 0.0
#ELEMENT tStep 1 number 1 gp 1 keyword 4 component 6  value 0.0
## check element no. 1 stress vector
#ELEMENT tStep 1 number 1 gp 1 keyword 1 component 1  value -8.333333333
#ELEMENT tStep 1 number 1 gp 1 keyword 1 component 2  value -2.083333333
#ELEMENT tStep 1 number 1 gp 1 keyword 1 component 6  value 0.0
##
#ELEMENT tStep 1 number 2 gp 2 keyword 4 component 1  value -0.520833333
#ELEMENT tStep 1 number 2 gp 2 keyword 4 component 2  value 0.0
#ELEMENT tStep 1 number 2 gp 2 keyword 4 component 6  value 0.0
#ELEMENT tStep 1 number 2 gp 2 keyword 1 component 1  value -8.333333333
#ELEMENT tStep 1 number 2 gp 2 keyword 1 component 2  value -2.083333333
#ELEMENT tStep 1 number 2 gp 2 keyword 1 component 6  value 0.0
##
#ELEMENT tStep 1 number 3 gp 3 keyword 4 component 1  value -0.520833333
#ELEMENT tStep 1 number 3 gp 3 keyword 4 component 2  value 0.0
#ELEMENT tStep 1 number 3 gp 3 keyword 4 component 6  value 0.0
#ELEMENT tStep 1 number 3 gp 3 keyword 1 component 1  value -8.333333333
#ELEMENT tStep 1 number 3 gp 3 keyword 1 component 2  value -2.083333333
#ELEMENT tStep 1 number 3 gp 3 keyword 1 component 6  value 0.0
##
#ELEMENT tStep 1 number 4 gp 4 keyword 4 component 1  value -0.520833333
#ELEMENT tStep 1 number 4 gp 4 keyword 4 component 2  value 0.0
#ELEMENT tStep 1 number 4 gp 4 keyword 4 component 6  value 0.0
#ELEMENT tStep 1 number 4 gp 4 keyword 1 component 1  value -8.333333333
#ELEMENT tStep 1 number 4 gp 4 keyword 1 component 2  value -2.083333333
#ELEMENT tStep 1 number 4 gp 4 keyword 1 component 6  value 0.0
#%END_CHECK%;l
#
#
