patch_cct3d.out
"Complex Patch test of DKT elements, four cases pure bending in x, and y, twist, and shear in one"
LinearStatic nsteps 1 nmodules 1
errorcheck
domain 3dshell
OutputManager tstep_all dofman_all element_all
ndofman 20 nelem 10 ncrosssect 1 nmat 1 nbc 8 nic 0 nltf 1 nset 9
#pure bending along x axis
node 1 coords 3  0.0  0.0  0.0
node 2 coords 3  4.0  0.0  0.0
node 3 coords 3  4.0  0.0  4.0
node 4 coords 3  0.0  0.0  4.0
#pure bending along z axis
node 11 coords 3  5.0  0.0  0.0
node 12 coords 3  9.0  0.0  0.0
node 13 coords 3  9.0  0.0  4.0
node 14 coords 3  5.0  0.0  4.0
#pure twist
node 21 coords 3  10.0  0.0  0.0
node 22 coords 3  14.0  0.0  0.0
node 23 coords 3  14.0  0.0  4.0
node 24 coords 3  10.0  0.0  4.0
# shear x
node 31 coords 3  15.0  0.0  0.0
node 32 coords 3  19.0  0.0  0.0
node 33 coords 3  19.0  0.0  4.0
node 34 coords 3  15.0  0.0  4.0
# shear y
node 41 coords 3  20.0  0.0  0.0
node 42 coords 3  24.0  0.0  0.0
node 43 coords 3  24.0  0.0  4.0
node 44 coords 3  20.0  0.0  4.0
##
cctplate3d 1 nodes 3 1 2 3
cctplate3d 2 nodes 3 1 3 4
#
cctplate3d 11 nodes 3 11 12 13
cctplate3d 12 nodes 3 11 13 14
#
cctplate3d 21 nodes 3 21 22 23
cctplate3d 22 nodes 3 21 23 24
#
cctplate3d 31 nodes 3 31 32 33
cctplate3d 32 nodes 3 31 33 34
#
cctplate3d 41 nodes 3 41 42 43
cctplate3d 42 nodes 3 41 43 44
#
SimpleCS 1 thick 0.3 material 1 set 1
IsoLE 1 d 2500.  E 15.0  n 0.25 tAlpha 0.000012
BoundaryCondition 1 loadTimeFunction 1 dofs 6 1 2 3 4 5 6 values 6 0 0 0 0 0 0 set 5
BoundaryCondition 2 loadTimeFunction 1 dofs 4 1 3 5 6 values 4 0 0 0 0 set 6
BoundaryCondition 3 loadTimeFunction 1 dofs 4 1 3 4 5 values 4 0 0 0 0 set 7
BoundaryCondition 4 loadTimeFunction 1 dofs 4 1 2 3 5 values 4 0 0 0 0 set 8
BoundaryCondition 5 loadTimeFunction 1 dofs 3 1 3 5 values 3 0 0 0 set 9
NodalLoad 6 loadTimeFunction 1 dofs 6 1 2 3 4 5 6 Components 6 0.0 0.0 0.0 -2.5 0.0 0.0 set 2
NodalLoad 7 loadTimeFunction 1 dofs 6 1 2 3 4 5 6 Components 6 0.0 0.0 0.0 0.0  0.0 -2.5 set 3
NodalLoad 8 loadTimeFunction 1 dofs 6 1 2 3 4 5 6 Components 6 0.0 0.5 0.0 0.0 0.0 0.0 set 4
ConstantFunction 1 f(t) 1.0
Set 1 elementranges {1 2 11 12 21 22 31 32 41 42}
Set 2 nodes 2 3 4
Set 3 nodes 2 12 13
Set 4 nodes 5 23 32 33 43 44
#
Set 5 nodes 8 1 2  11 14  31 34  41 42
Set 6 nodes 4 3 4  43 44
Set 7 nodes 4 12 13  32 33
Set 8 nodes 3 21 22 24
Set 9 nodes 1 23
#
#  exact solution
#
#%BEGIN_CHECK% tolerance 5.e-4
## check reactions 
## pure bending along x axis
#REACTION tStep 1 number 1 dof 3 value 0.0
#REACTION tStep 1 number 1 dof 4 value 2.5
#REACTION tStep 1 number 2 dof 3 value 0.0
#REACTION tStep 1 number 2 dof 4 value 2.5
#ELEMENT tStep 1 number 1 gp 1 keyword 11 component 1  value 0.0
#ELEMENT tStep 1 number 1 gp 1 keyword 11 component 2  value 0.0
#ELEMENT tStep 1 number 1 gp 1 keyword 11 component 3  value 34.722
#ELEMENT tStep 1 number 1 gp 1 keyword 9 component 1  value 3.1250e-01
#ELEMENT tStep 1 number 1 gp 1 keyword 9 component 2  value 0.0
#ELEMENT tStep 1 number 1 gp 1 keyword 9 component 3  value 1.2500e+0
## pure bending along y axis
#REACTION tStep 1 number 11 dof 3 value 0.0
#REACTION tStep 1 number 11 dof 6 value 2.5
#REACTION tStep 1 number 14 dof 2 value 0.0
#ELEMENT tStep 1 number 11 gp 1 keyword 11 component 1  value -34.722
#ELEMENT tStep 1 number 11 gp 1 keyword 11 component 2  value 0.0
#ELEMENT tStep 1 number 11 gp 1 keyword 11 component 3  value 0.0
#ELEMENT tStep 1 number 11 gp 1 keyword 9 component 1  value -1.2500e+00
#ELEMENT tStep 1 number 11 gp 1 keyword 9 component 2  value 0.0
#ELEMENT tStep 1 number 11 gp 1 keyword 9 component 3  value -3.1250e-01
## pure twist
#REACTION tStep 1 number 21 dof 2  value 0.5
#REACTION tStep 1 number 22 dof 2 value -0.5
#REACTION tStep 1 number 24 dof 2 value -0.5
#ELEMENT tStep 1 number 21 gp 1 keyword 11 component 1  value 0.0
#ELEMENT tStep 1 number 21 gp 1 keyword 11 component 3  value 0.0
#ELEMENT tStep 1 number 21 gp 1 keyword 11 component 5  value 18.519
#ELEMENT tStep 1 number 21 gp 1 keyword 9 component 1  value 0.0
#ELEMENT tStep 1 number 21 gp 1 keyword 9 component 3  value 0.0
#ELEMENT tStep 1 number 21 gp 1 keyword 9 component 5  value 0.25
## shear x
##REACTION tStep 1 number 31 dof 1 value -0.5
##REACTION tStep 1 number 31 dof 3 value  2.0
##REACTION tStep 1 number 31 dof 1 value -0.5
##REACTION tStep 1 number 31 dof 3 value  2.0
## shear y
##REACTION tStep 1 number 41 dof 1 value -0.5
##REACTION tStep 1 number 41 dof 2 value -2.0
##REACTION tStep 1 number 41 dof 1 value -0.5
##REACTION tStep 1 number 41 dof 2 value -2.0
#%END_CHECK%

