patch103.out
Patch test of PlaneStress2d elements -> thermal load
LinearStatic nsteps 1 nmodules 1
errorcheck
domain 2dPlaneStress
OutputManager tstep_all dofman_all element_all
ndofman 6 nelem 2 ncrosssect  1 nmat 1 nbc 2 nic 0 nltf 1
Node 1 coords 3  0.0   0.0   0.0  bc 2 1 1
Node 2 coords 3  0.0   4.0   0.0  bc 2 1 1
Node 3 coords 3  3.0   0.0   0.0  bc 2 0 1
Node 4 coords 3  3.0   4.0   0.0  bc 2 0 1
Node 5 coords 3  6.0   0.0   0.0  bc 2 1 1
Node 6 coords 3  6.0   4.0   0.0  bc 2 1 1
PlaneStress2d 1 nodes 4 4 2 1 3  mat 1 NIP 4 bodyLoads 1 2 crossSect 1
PlaneStress2d 2 nodes 4 6 4 3 5  mat 1 NIP 4 bodyLoads 1 2 crossSect 1
SimpleCS 1 thick 0.15
IsoLE 1  tAlpha 0.000012  d 1.0  E 15.0  n 0.25  
BoundaryCondition  1 loadTimeFunction 1 prescribedvalue 0.0 
StructTemperatureLoad 2 loadTimeFunction 1 Components 2 -30.0 0.0
ConstantFunction 1 f(t) 1.0
#
#
#%BEGIN_CHECK% tolerance 1.e-10
## check reactions 
#REACTION tStep 1 number 1 dof 1 value -2.1600e-03
#REACTION tStep 1 number 1 dof 2 value -1.6200e-03
#REACTION tStep 1 number 2 dof 1 value -2.1600e-03
#REACTION tStep 1 number 2 dof 2 value 1.6200e-03
#REACTION tStep 1 number 3 dof 2 value -3.2400e-03
#REACTION tStep 1 number 4 dof 2 value 3.2400e-03
#REACTION tStep 1 number 5 dof 2 value -1.6200e-03
#REACTION tStep 1 number 6 dof 1 value 2.1600e-03
#REACTION tStep 1 number 6 dof 2 value 1.6200e-03
## check all nodes
#NODE tStep 1 number 1 dof 1 unknown d value 0.0
#NODE tStep 1 number 2 dof 1 unknown d value 0.0
#NODE tStep 1 number 3 dof 1 unknown d value 0.0
#NODE tStep 1 number 4 dof 1 unknown d value 0.0
#NODE tStep 1 number 5 dof 1 unknown d value 0.0
#NODE tStep 1 number 6 dof 1 unknown d value 0.0
##
#NODE tStep 1 number 1 dof 2 unknown d value 0.0
#NODE tStep 1 number 2 dof 2 unknown d value 0.0
#NODE tStep 1 number 3 dof 2 unknown d value 0.0
#NODE tStep 1 number 4 dof 2 unknown d value 0.0
#NODE tStep 1 number 5 dof 2 unknown d value 0.0
#NODE tStep 1 number 6 dof 2 unknown d value 0.0
## check element strain vector
#ELEMENT tStep 1 number 1 gp 1 keyword 4 component 1  value 0.0
#ELEMENT tStep 1 number 1 gp 1 keyword 4 component 2  value 0.
#ELEMENT tStep 1 number 1 gp 1 keyword 4 component 6  value 0.0
#ELEMENT tStep 1 number 2 gp 3 keyword 4 component 1  value 0.0
#ELEMENT tStep 1 number 2 gp 3 keyword 4 component 2  value 0.0
#ELEMENT tStep 1 number 2 gp 3 keyword 4 component 6  value 0.0
## check element stress vector
#ELEMENT tStep 1 number 1 gp 1 keyword 1 component 1  value 7.2000e-03
#ELEMENT tStep 1 number 1 gp 1 keyword 1 component 2  value 7.2000e-03
#ELEMENT tStep 1 number 1 gp 1 keyword 1 component 6  value 0.0
#ELEMENT tStep 1 number 2 gp 4 keyword 1 component 1  value 7.2000e-03
#ELEMENT tStep 1 number 2 gp 4 keyword 1 component 2  value 7.2000e-03
#ELEMENT tStep 1 number 2 gp 4 keyword 1 component 6  value 0.0
##
#%END_CHECK%
