patch301.out
compression patch test of LTRSpace elements
LinearStatic nsteps 1 nmodules 1
errorcheck
domain 3d
OutputManager tstep_all dofman_all element_all
ndofman 6 nelem 3 ncrosssect 1 nmat 1 nbc 3 nic 0 nltf 1 nset 4
node 1 coords 3 0. 0. 0.
node 2 coords 3 3. 0. 0.
node 3 coords 3 0. 3. 0.
node 4 coords 3 0. 0. 6.
node 5 coords 3 3. 0. 6.
node 6 coords 3 0. 3. 6.
LTRSpace  1 nodes 4 1 2 3 4
LTRSpace  2 nodes 4 4 5 2 3
LTRSpace  3 nodes 4 4 6 5 3
SimpleCS 1 material 1 set 4
IsoLE 1 d 0.0 E 15.0 n 0.25 tAlpha 0.000012
BoundaryCondition 1 loadTimeFunction 1 values 2 0. 0. dofs 2 1 2 set 1
BoundaryCondition 2 loadTimeFunction 1 values 1 0. dofs 1 3 set 2
ConstantSurfaceLoad 3 loadtimefunction 1 dofs 3 1 2 3 components 3 0.0 0.0 -1.0 set 3
#NodalLoad 1 loadTimeFunction 1 dofs 3 1 2 3 Components 3 0.0 0.0 -1.5
ConstantFunction 1 f(t) 1.0
Set 1 nodes 6 1 2 3 4 5 6
Set 2 nodes 3 1 2 3
Set 3 elementBoundaries 2 3 1
Set 4 elements 3 1 2 3
#
#
#
#%BEGIN_CHECK% tolerance 1.e-5
##
## Note: this is the exact solution
##
## check reactions 
#REACTION tStep 1 number 1 dof 3 value 1.5
#REACTION tStep 1 number 2 dof 3 value 1.5
#REACTION tStep 1 number 3 dof 3 value 1.5
## check all nodes
#NODE tStep 1 number 4 dof 1 unknown d value 0.0
#NODE tStep 1 number 4 dof 2 unknown d value 0.0
#NODE tStep 1 number 4 dof 3 unknown d value -0.333333333
#NODE tStep 1 number 5 dof 1 unknown d value 0.0
#NODE tStep 1 number 5 dof 2 unknown d value 0.0
#NODE tStep 1 number 5 dof 3 unknown d value -0.333333333
#NODE tStep 1 number 6 dof 1 unknown d value 0.0
#NODE tStep 1 number 6 dof 2 unknown d value 0.0
#NODE tStep 1 number 6 dof 3 unknown d value -0.333333333
## check element's stress & strain vectors
#ELEMENT tStep 1 number 1 gp 1 keyword 4 component 1  value 0.0
#ELEMENT tStep 1 number 1 gp 1 keyword 4 component 2  value 0.0
#ELEMENT tStep 1 number 1 gp 1 keyword 4 component 3  value -0.05555555
#ELEMENT tStep 1 number 1 gp 1 keyword 4 component 4  value 0.0
#ELEMENT tStep 1 number 1 gp 1 keyword 4 component 5  value 0.0
#ELEMENT tStep 1 number 1 gp 1 keyword 4 component 6  value 0.0
##
#ELEMENT tStep 1 number 1 gp 1 keyword 1 component 1  value -0.33333333
#ELEMENT tStep 1 number 1 gp 1 keyword 1 component 2  value -0.33333333
#ELEMENT tStep 1 number 1 gp 1 keyword 1 component 3  value -1.0
#ELEMENT tStep 1 number 1 gp 1 keyword 1 component 4  value 0.0
#ELEMENT tStep 1 number 1 gp 1 keyword 1 component 5  value 0.0
#ELEMENT tStep 1 number 1 gp 1 keyword 1 component 6  value 0.0
##
#ELEMENT tStep 1 number 2 gp 1 keyword 4 component 1  value 0.0
#ELEMENT tStep 1 number 2 gp 1 keyword 4 component 2  value 0.0
#ELEMENT tStep 1 number 2 gp 1 keyword 4 component 3  value -0.05555555
#ELEMENT tStep 1 number 2 gp 1 keyword 4 component 4  value 0.0
#ELEMENT tStep 1 number 2 gp 1 keyword 4 component 5  value 0.0
#ELEMENT tStep 1 number 2 gp 1 keyword 4 component 6  value 0.0
##
#ELEMENT tStep 1 number 2 gp 1 keyword 1 component 1  value -0.33333333
#ELEMENT tStep 1 number 2 gp 1 keyword 1 component 2  value -0.33333333
#ELEMENT tStep 1 number 2 gp 1 keyword 1 component 3  value -1.0
#ELEMENT tStep 1 number 2 gp 1 keyword 1 component 4  value 0.0
#ELEMENT tStep 1 number 2 gp 1 keyword 1 component 5  value 0.0
#ELEMENT tStep 1 number 2 gp 1 keyword 1 component 6  value 0.0
##
#ELEMENT tStep 1 number 3 gp 1 keyword 4 component 1  value 0.0
#ELEMENT tStep 1 number 3 gp 1 keyword 4 component 2  value 0.0
#ELEMENT tStep 1 number 3 gp 1 keyword 4 component 3  value -0.05555555
#ELEMENT tStep 1 number 3 gp 1 keyword 4 component 4  value 0.0
#ELEMENT tStep 1 number 3 gp 1 keyword 4 component 5  value 0.0
#ELEMENT tStep 1 number 3 gp 1 keyword 4 component 6  value 0.0
##
#ELEMENT tStep 1 number 3 gp 1 keyword 1 component 1  value -0.33333333
#ELEMENT tStep 1 number 3 gp 1 keyword 1 component 2  value -0.33333333
#ELEMENT tStep 1 number 3 gp 1 keyword 1 component 3  value -1.0
#ELEMENT tStep 1 number 3 gp 1 keyword 1 component 4  value 0.0
#ELEMENT tStep 1 number 3 gp 1 keyword 1 component 5  value 0.0
#ELEMENT tStep 1 number 3 gp 1 keyword 1 component 6  value 0.0
##
#%END_CHECK%
