patch_cct_02.out
test of cct loaded by surface load
StaticStructural nsteps 1 nmodules 1
errorcheck
domain 2dMindlinPlate
OutputManager tstep_all dofman_all element_all
ndofman 5 nelem 4 ncrosssect 1 nmat 1 nbc 2 nic 0 nltf 1 nset 3
#pure bending along x axis
node 1 coords 3  0.0  0.0  0.0
node 2 coords 3  4.0  0.0  0.0
node 3 coords 3  4.0  4.0  0.0
node 4 coords 3  0.0  4.0  0.0
node 5 coords 3  2.0 2.0 0.0 
##
cctplate 1 nodes 3 1 2 5
cctplate 2 nodes 3 2 3 5
cctplate 3 nodes 3 3 4 5
cctplate 4 nodes 3 4 1 5
#
SimpleCS 1 thick 0.3 material 1 set 1
IsoLE 1 d 2500.  E 15.0  n 0.25 tAlpha 0.000012
BoundaryCondition 1 loadTimeFunction 1 dofs 3 3 4 5 values 3 0.0 0.0 0.0 set 2
ConstantSurfaceLoad 2 loadTimeFunction 1 dofs 3 3 4 5 Components 3 1.0 0.0 0.0 set 3
ConstantFunction 1 f(t) 1.0
Set 1 elementranges {1 2 3 4}
Set 2 nodes 2 1 4
Set 3 elementboundaries 8 1 1  2 1 3 1 4 1
#
#  exact solution
#
#%BEGIN_CHECK% tolerance 1.e-5
##
##
## check reactions 
#REACTION tStep 1 number 1 dof 3 value -8.0
#REACTION tStep 1 number 4 dof 3 value -8.0
#REACTION tStep 1 number 1 dof 5 value 16.0
#REACTION tStep 1 number 4 dof 5 value 16.0
## check all nodes
#NODE tStep 1 number 2 dof 3 unknown d value 9.70999598e+02
#NODE tStep 1 number 3 dof 3 unknown d value 9.70999598e+02
#NODE tStep 1 number 2 dof 4 unknown d value 2.35431330e+01
#NODE tStep 1 number 3 dof 4 unknown d value -2.35431330e+01
#NODE tStep 1 number 2 dof 5 unknown d value -4.75021586e+02
#NODE tStep 1 number 3 dof 5 unknown d value -4.75021586e+02
#%END_CHECK%
