patch_mitc4.out
"Patch test of MITC4Shell elements, three cases pure bending in y, pure shear and twist"
LinearStatic nsteps 1 nmodules 1
errorcheck
domain 3dshell
OutputManager tstep_all dofman_all element_all
ndofman 24 nelem 15 ncrosssect  1 nmat 1 nbc 3 nic 0 nltf 1
#pure bending along y axis
node 1 coords 3  0.0  4.0  0.0   bc 6 1 1 1 1 1 1
node 2 coords 3  0.0  0.0  0.0   bc 6 1 1 1 1 1 1
node 3 coords 3  1.6  2.8  0.0   bc 6 0 0 0 1 0 1
node 4 coords 3  0.8  0.8  0.0   bc 6 0 0 0 1 0 1
node 5 coords 3  3.2  2.8  0.0   bc 6 0 0 0 1 0 1
node 6 coords 3  3.2  1.2  0.0   bc 6 0 0 0 1 0 1
node 7 coords 3  4.0  4.0  0.0   bc 6 0 0 0 1 0 1 load 1 2 
node 8 coords 3  4.0  0.0  0.0   bc 6 0 0 0 1 0 1 load 1 2 
#pure shear
node 11 coords 3  10.0  4.0  0.0   bc 6 1 1 1 1 1 1
node 12 coords 3  10.0  0.0  0.0   bc 6 1 1 1 1 1 1
node 13 coords 3  11.6  2.8  0.0   bc 6 1 1 0 1 1 1
node 14 coords 3  10.8  0.8  0.0   bc 6 1 1 0 1 1 1
node 15 coords 3  13.2  2.8  0.0   bc 6 1 1 0 1 1 1
node 16 coords 3  13.2  1.2  0.0   bc 6 1 1 0 1 1 1
node 17 coords 3  14.0  4.0  0.0   bc 6 1 1 0 1 1 1 load 1 3 
node 18 coords 3  14.0  0.0  0.0   bc 6 1 1 0 1 1 1 load 1 3
#pure twist
node 21 coords 3  20.0  4.0  0.0   bc 6 1 1 1 0 0 1
node 22 coords 3  20.0  0.0  0.0   bc 6 1 1 1 0 0 1
node 23 coords 3  21.6  2.8  0.0   bc 6 1 1 0 0 0 1
node 24 coords 3  20.8  0.8  0.0   bc 6 1 1 0 0 0 1
node 25 coords 3  23.2  2.8  0.0   bc 6 1 1 0 0 0 1
node 26 coords 3  23.2  1.2  0.0   bc 6 1 1 0 0 0 1
node 27 coords 3  24.0  4.0  0.0   bc 6 1 1 0 0 0 1 load 1 3 
node 28 coords 3  24.0  0.0  0.0   bc 6 1 1 1 0 0 1
##
mitc4shell 1 nodes 4 2 4 3 1 crosssect 1 mat 1 
mitc4shell 2 nodes 4 2 8 6 4 crosssect 1 mat 1 
mitc4shell 3 nodes 4 4 6 5 3 crosssect 1 mat 1 
mitc4shell 4 nodes 4 3 5 7 1 crosssect 1 mat 1 
mitc4shell 5 nodes 4 5 6 8 7 crosssect 1 mat 1 
mitc4shell 11 nodes 4 12 14 13 11 crosssect 1 mat 1 
mitc4shell 12 nodes 4 12 18 16 14 crosssect 1 mat 1 
mitc4shell 13 nodes 4 14 16 15 13 crosssect 1 mat 1 
mitc4shell 14 nodes 4 13 15 17 11 crosssect 1 mat 1 
mitc4shell 15 nodes 4 15 16 18 17 crosssect 1 mat 1 
mitc4shell 21 nodes 4 22 24 23 21 crosssect 1 mat 1 
mitc4shell 22 nodes 4 22 28 26 24 crosssect 1 mat 1 
mitc4shell 23 nodes 4 24 26 25 23 crosssect 1 mat 1 
mitc4shell 24 nodes 4 23 25 27 21 crosssect 1 mat 1 
mitc4shell 25 nodes 4 25 26 28 27 crosssect 1 mat 1 
SimpleCS 1 thick 0.1
IsoLE 1 d 2500.  E 15.0  n 0.25 tAlpha 0.000012
BoundaryCondition  1 loadTimeFunction 1 prescribedvalue 0.0 
NodalLoad 2 loadTimeFunction 1 Components 6 0 0 0.0 0.0 -2.5 0
NodalLoad 3 loadTimeFunction 1 Components 6 0 0 5.0 0.0 0.0 0
ConstantFunction 1 f(t) 1.0
#
#
#
#
#%BEGIN_CHECK% tolerance 5.e-3
#
#
## pure bending
#REACTION tStep 1 number 1 dof 4 value 0.625
#REACTION tStep 1 number 1 dof 5 value 2.5
#REACTION tStep 1 number 2 dof 4 value -0.625
#REACTION tStep 1 number 2 dof 5 value 2.5
#REACTION tStep 1 number 7 dof 4 value 0.625
#REACTION tStep 1 number 7 dof 6 value 0.0
#REACTION tStep 1 number 8 dof 4 value -0.625
#REACTION tStep 1 number 8 dof 6 value 0.0
##
#NODE tStep 1 number 7 dof 3 unknown d value 7.50000000e+03
#NODE tStep 1 number 7 dof 5 unknown d value -3.75000000e+03
#NODE tStep 1 number 8 dof 3 unknown d value 7.50000000e+03
#NODE tStep 1 number 8 dof 5 unknown d value -3.75000000e+03
##
#ELEMENT tStep 1 number 5 gp 1 keyword 104 component 1  value 2.7063e+01
#ELEMENT tStep 1 number 5 gp 2 keyword 104 component 1  value -2.7063e+01
#ELEMENT tStep 1 number 5 gp 3 keyword 104 component 1  value 2.7063e+01
#ELEMENT tStep 1 number 5 gp 4 keyword 104 component 1  value -2.7063e+01
#ELEMENT tStep 1 number 5 gp 5 keyword 104 component 1  value 2.7063e+01
#ELEMENT tStep 1 number 5 gp 6 keyword 104 component 1  value -2.7063e+01
#ELEMENT tStep 1 number 5 gp 7 keyword 104 component 1  value 2.7063e+01
#ELEMENT tStep 1 number 5 gp 8 keyword 104 component 1  value -2.7063e+01
#
#ELEMENT tStep 1 number 5 gp 1 keyword 104 component 6  value 0.0
#ELEMENT tStep 1 number 5 gp 2 keyword 104 component 6  value 0.0
#ELEMENT tStep 1 number 5 gp 3 keyword 104 component 6  value 0.0
#ELEMENT tStep 1 number 5 gp 4 keyword 104 component 6  value 0.0
#ELEMENT tStep 1 number 5 gp 5 keyword 104 component 6  value 0.0
#ELEMENT tStep 1 number 5 gp 6 keyword 104 component 6  value 0.0
#ELEMENT tStep 1 number 5 gp 7 keyword 104 component 6  value 0.0
#ELEMENT tStep 1 number 5 gp 8 keyword 104 component 6  value 0.0
#
#ELEMENT tStep 1 number 5 gp 1 keyword 10 component 1  value 4.3301e+02
#ELEMENT tStep 1 number 5 gp 2 keyword 10 component 1  value -4.3301e+02
#ELEMENT tStep 1 number 5 gp 3 keyword 10 component 1  value 4.3301e+02
#ELEMENT tStep 1 number 5 gp 4 keyword 10 component 1  value -4.3301e+02
#ELEMENT tStep 1 number 5 gp 5 keyword 10 component 1  value 4.3301e+02
#ELEMENT tStep 1 number 5 gp 6 keyword 10 component 1  value -4.3301e+02
#ELEMENT tStep 1 number 5 gp 7 keyword 10 component 1  value 4.3301e+02
#ELEMENT tStep 1 number 5 gp 8 keyword 10 component 1  value -4.3301e+02
#
#ELEMENT tStep 1 number 5 gp 1 keyword 10 component 6  value -2.28510544e-11
#ELEMENT tStep 1 number 5 gp 2 keyword 10 component 6  value 2.28510544e-11
#ELEMENT tStep 1 number 5 gp 3 keyword 10 component 6  value -2.28510544e-11
#ELEMENT tStep 1 number 5 gp 4 keyword 10 component 6  value 2.28510544e-11
#ELEMENT tStep 1 number 5 gp 5 keyword 10 component 6  value -2.28510544e-11
#ELEMENT tStep 1 number 5 gp 6 keyword 10 component 6  value 2.28510544e-11
#ELEMENT tStep 1 number 5 gp 7 keyword 10 component 6  value -2.28510544e-11
#ELEMENT tStep 1 number 5 gp 8 keyword 10 component 6  value 2.28510544e-11
##
##
## pure shear
#REACTION tStep 1 number 11 dof 3 value -5.0
#REACTION tStep 1 number 12 dof 3 value -5.0
##
#NODE tStep 1 number 17 dof 3 unknown d value 1.66666667e+01
#NODE tStep 1 number 18 dof 3 unknown d value 1.66666667e+01
##
#ELEMENT tStep 1 number 15 gp 1 keyword 10 component 4  value 2.5e+01
#ELEMENT tStep 1 number 15 gp 2 keyword 10 component 4  value 2.5e+01
#ELEMENT tStep 1 number 15 gp 3 keyword 10 component 4  value 2.5e+01
#ELEMENT tStep 1 number 15 gp 4 keyword 10 component 4  value 2.5e+01
#ELEMENT tStep 1 number 15 gp 5 keyword 10 component 4  value 2.5e+01
#ELEMENT tStep 1 number 15 gp 6 keyword 10 component 4  value 2.5e+01
#ELEMENT tStep 1 number 15 gp 7 keyword 10 component 4  value 2.5e+01
#ELEMENT tStep 1 number 15 gp 8 keyword 10 component 4  value 2.5e+01
#
#ELEMENT tStep 1 number 15 gp 1 keyword 104 component 4  value 4.16666667e+00
#ELEMENT tStep 1 number 15 gp 2 keyword 104 component 4  value 4.16666667e+00
#ELEMENT tStep 1 number 15 gp 3 keyword 104 component 4  value 4.16666667e+00
#ELEMENT tStep 1 number 15 gp 4 keyword 104 component 4  value 4.16666667e+00
#ELEMENT tStep 1 number 15 gp 5 keyword 104 component 4  value 4.16666667e+00
#ELEMENT tStep 1 number 15 gp 6 keyword 104 component 4  value 4.16666667e+00
#ELEMENT tStep 1 number 15 gp 7 keyword 104 component 4  value 4.16666667e+00
#ELEMENT tStep 1 number 15 gp 8 keyword 104 component 4  value 4.16666667e+00
##
##
## pure twist
#REACTION tStep 1 number 21 dof 3 value -5.0
#REACTION tStep 1 number 22 dof 3 value 5.0
#REACTION tStep 1 number 28 dof 3 value -5.0
##
#NODE tStep 1 number 21 dof 4 unknown d value 1.22431211e+01
#NODE tStep 1 number 21 dof 5 unknown d value -1.00114862e+04
#NODE tStep 1 number 27 dof 3 unknown d value 4.00838738e+04
#NODE tStep 1 number 27 dof 4 unknown d value 1.00076646e+04
#NODE tStep 1 number 27 dof 5 unknown d value -1.00127146e+04
#NODE tStep 1 number 28 dof 4 unknown d value 1.00121751e+04
#NODE tStep 1 number 28 dof 5 unknown d value -1.14181506e+01
##
#%END_CHECK%



