patch010.out
Patch test of Truss2d elements -> temperature load
LinearStatic nsteps 1
domain 2dTruss
OutputManager tstep_all dofman_all element_all
ndofman 5 nelem 4 ncrosssect  1 nmat 1 nbc 2 nic 0 nltf 1
Node 1 coords 3  0.  0.  0.  bc 2 1 1
Node 2 coords 3  2.  0.  0.  bc 2 0 1
Node 3 coords 3  4.  0.  0.  bc 2 0 1
Node 4 coords 3  6.  0.  0.  bc 2 0 1
Node 5 coords 3  8.  0.  0.  bc 2 1 1
Truss2d 1 nodes 2 1 2 mat 1 bodyLoads 1 2 crossSect 1
Truss2d 2 nodes 2 2 3 mat 1 bodyLoads 1 2 crossSect 1
Truss2d 3 nodes 2 3 4 mat 1 bodyLoads 1 2 crossSect 1
Truss2d 4 nodes 2 4 5 mat 1 bodyLoads 1 2 crossSect 1
SimpleCS 1 thick 0.1 width 10.0
IsoLE 1  tAlpha 0.000012  d 1.0  E 1.0  n 0.2  
BoundaryCondition  1 loadTimeFunction 1 prescribedvalue 0.0
StructTemperatureLoad 2 loadTimeFunction 1 Components 2 30.0 0.0
ConstantFunction 1 f(t) 1.0
#
#
#%BEGIN_CHECK% tolerance 1.e-8
## check reactions
#REACTION tStep 1 number 1 dof 1 value 3.6000e-04
#REACTION tStep 1 number 1 dof 2 value 0.0
#REACTION tStep 1 number 2 dof 2 value 0.0
#REACTION tStep 1 number 3 dof 2 value 0.0
#REACTION tStep 1 number 4 dof 2 value 0.0
#REACTION tStep 1 number 5 dof 1 value -3.6000e-04
#REACTION tStep 1 number 5 dof 2 value 0.0
## check all nodes
#NODE tStep 1 number 1 dof 1 unknown d value 0.0
#NODE tStep 1 number 2 dof 1 unknown d value 0.0
#NODE tStep 1 number 3 dof 1 unknown d value 0.0
#NODE tStep 1 number 4 dof 1 unknown d value 0.0
#NODE tStep 1 number 5 dof 1 unknown d value 0.0
##
#NODE tStep 1 number 1 dof 2 unknown d value 0.0
#NODE tStep 1 number 2 dof 2 unknown d value 0.0
#NODE tStep 1 number 3 dof 2 unknown d value 0.0
#NODE tStep 1 number 4 dof 2 unknown d value 0.0
#NODE tStep 1 number 5 dof 2 unknown d value 0.0
## check element no. 1 strain vector
#ELEMENT tStep 1 number 1 gp 1 keyword "strains" component 1  value 0.0
#ELEMENT tStep 1 number 2 gp 1 keyword "strains" component 1  value 0.0
#ELEMENT tStep 1 number 3 gp 1 keyword "strains" component 1  value 0.0
#ELEMENT tStep 1 number 4 gp 1 keyword "strains" component 1  value 0.0
## check element no. 1 stress vector
#ELEMENT tStep 1 number 1 gp 1 keyword "stresses" component 1  value -3.6000e-04
#ELEMENT tStep 1 number 2 gp 1 keyword "stresses" component 1  value -3.6000e-04
#ELEMENT tStep 1 number 3 gp 1 keyword "stresses" component 1  value -3.6000e-04
#ELEMENT tStep 1 number 4 gp 1 keyword "stresses" component 1  value -3.6000e-04
##
#%END_CHECK%