patch_qdkt.out
"Complex Patch test of QDKT elements, four cases pure bending in x, and y, twist, and shear in one"
LinearStatic nsteps 1 nmodules 1
errorcheck
domain 2dMindlinPlate
OutputManager tstep_all dofman_all element_all
ndofman 20 nelem 5 ncrosssect 1 nmat 1 nbc 6 nic 0 nltf 1 nset 7
#pure bending along x axis
node 1 coords 3  0.0  0.0  0.0
node 2 coords 3  4.0  0.0  0.0
node 3 coords 3  4.0  4.0  0.0
node 4 coords 3  0.0  4.0  0.0
#pure bending along y axis
node 11 coords 3  5.0  0.0  0.0
node 12 coords 3  9.0  0.0  0.0
node 13 coords 3  9.0  4.0  0.0
node 14 coords 3  5.0  4.0  0.0
#pure twist
node 21 coords 3  10.0  0.0  0.0
node 22 coords 3  14.0  0.0  0.0
node 23 coords 3  14.0  4.0  0.0
node 24 coords 3  10.0  4.0  0.0
# shear x
node 31 coords 3  15.0  0.0  0.0
node 32 coords 3  19.0  0.0  0.0
node 33 coords 3  19.0  4.0  0.0
node 34 coords 3  15.0  4.0  0.0
# shear y
node 41 coords 3  20.0  0.0  0.0
node 42 coords 3  24.0  0.0  0.0
node 43 coords 3  24.0  4.0  0.0
node 44 coords 3  20.0  4.0  0.0
##
qdktplate 1 nodes 4 1 2 3 4
qdktplate 2 nodes 4 11 12 13 14
qdktplate 3 nodes 4 21 22 23 24
qdktplate 4 nodes 4 31 32 33 34
qdktplate 5 nodes 4 41 42 43 44
SimpleCS 1 thick 0.3 material 1 set 1
IsoLE 1 d 2500.  E 15.0  n 0.25 tAlpha 0.000012
BoundaryCondition 1 loadTimeFunction 1 dofs 1 3 values 1 0.0 set 5
BoundaryCondition 2 loadTimeFunction 1 dofs 1 4 values 1 0.0 set 6
BoundaryCondition 3 loadTimeFunction 1 dofs 1 5 values 1 0.0 set 7
NodalLoad 4 loadTimeFunction 1 dofs 3 3 4 5 Components 3 0.0 -2.5 0.0 set 2
NodalLoad 5 loadTimeFunction 1 dofs 3 3 4 5 Components 3 0.0 0.0 -2.5 set 3
NodalLoad 6 loadTimeFunction 1 dofs 3 3 4 5 Components 3 0.5 0.0 0.0 set 4
ConstantFunction 1 f(t) 1.0
Set 1 elementranges {(1 5)}
Set 2 nodes 2 3 4
Set 3 nodes 2 12 13
Set 4 nodes 5 23 32 33 43 44
#
Set 5 nodes 11 1 2 11 14 21 22 24 31 34 41 42
Set 6 nodes 12 1 2 11 12 13 14 31 32 33 34 41 42
Set 7 nodes 12 1 2 3 4 11 14 31 34 41 42 43 44
#
#  exact solution
#
#%BEGIN_CHECK% tolerance 5.e-4
## check reactions 
## pure bending along x axis
#REACTION tStep 1 number 1 dof 3 value 0.0
#REACTION tStep 1 number 1 dof 4 value 2.5
#REACTION tStep 1 number 2 dof 3 value 0.0
#REACTION tStep 1 number 2 dof 4 value 2.5
#ELEMENT tStep 1 number 1 gp 1 keyword 4 component 4  value 0.0
#ELEMENT tStep 1 number 1 gp 1 keyword 4 component 5  value 34.722
#ELEMENT tStep 1 number 1 gp 1 keyword 4 component 6  value 0.0
#ELEMENT tStep 1 number 1 gp 2 keyword 4 component 4  value 0.0
#ELEMENT tStep 1 number 1 gp 2 keyword 4 component 5  value 34.722
#ELEMENT tStep 1 number 1 gp 2 keyword 4 component 6  value 0.0
#ELEMENT tStep 1 number 1 gp 3 keyword 4 component 4  value 0.0
#ELEMENT tStep 1 number 1 gp 3 keyword 4 component 5  value 34.722
#ELEMENT tStep 1 number 1 gp 3 keyword 4 component 6  value 0.0
#ELEMENT tStep 1 number 1 gp 4 keyword 4 component 4  value 0.0
#ELEMENT tStep 1 number 1 gp 4 keyword 4 component 5  value 34.722
#ELEMENT tStep 1 number 1 gp 4 keyword 4 component 6  value 0.0
#ELEMENT tStep 1 number 1 gp 1 keyword 1 component 4  value 3.1250e-01
#ELEMENT tStep 1 number 1 gp 1 keyword 1 component 5  value 1.2500e+0
#ELEMENT tStep 1 number 1 gp 1 keyword 1 component 6  value 0.0
#ELEMENT tStep 1 number 1 gp 2 keyword 1 component 4  value 3.1250e-01
#ELEMENT tStep 1 number 1 gp 2 keyword 1 component 5  value 1.2500e+0
#ELEMENT tStep 1 number 1 gp 2 keyword 1 component 6  value 0.0
#ELEMENT tStep 1 number 1 gp 3 keyword 1 component 4  value 3.1250e-01
#ELEMENT tStep 1 number 1 gp 3 keyword 1 component 5  value 1.2500e+0
# ... 4 like lines cut
## pure bending along y axis
#REACTION tStep 1 number 11 dof 3 value 0.0
#REACTION tStep 1 number 11 dof 5 value 2.5
#REACTION tStep 1 number 14 dof 3 value 0.0
#REACTION tStep 1 number 14 dof 5 value 2.5
#ELEMENT tStep 1 number 2 gp 1 keyword 4 component 4  value -34.722
#ELEMENT tStep 1 number 2 gp 1 keyword 4 component 5  value 0.0
#ELEMENT tStep 1 number 2 gp 1 keyword 4 component 6  value 0.0
#ELEMENT tStep 1 number 2 gp 2 keyword 4 component 4  value -34.722
#ELEMENT tStep 1 number 2 gp 2 keyword 4 component 5  value 0.0
#ELEMENT tStep 1 number 2 gp 2 keyword 4 component 6  value 0.0
#ELEMENT tStep 1 number 2 gp 3 keyword 4 component 4  value -34.722
#ELEMENT tStep 1 number 2 gp 3 keyword 4 component 5  value 0.0
#ELEMENT tStep 1 number 2 gp 3 keyword 4 component 6  value 0.0
#ELEMENT tStep 1 number 2 gp 4 keyword 4 component 4  value -34.722
#ELEMENT tStep 1 number 2 gp 4 keyword 4 component 5  value 0.0
#ELEMENT tStep 1 number 2 gp 4 keyword 4 component 6  value 0.0
#ELEMENT tStep 1 number 2 gp 1 keyword 1 component 4  value -1.2500e+00
#ELEMENT tStep 1 number 2 gp 1 keyword 1 component 5  value -3.1250e-01
#ELEMENT tStep 1 number 2 gp 1 keyword 1 component 6  value 0.0
#ELEMENT tStep 1 number 2 gp 2 keyword 1 component 4  value -1.2500e+00
#ELEMENT tStep 1 number 2 gp 2 keyword 1 component 5  value -3.1250e-01
#ELEMENT tStep 1 number 2 gp 2 keyword 1 component 6  value 0.0
#ELEMENT tStep 1 number 2 gp 3 keyword 1 component 4  value -1.2500e+00
#ELEMENT tStep 1 number 2 gp 3 keyword 1 component 5  value -3.1250e-01
# ... 4 like lines cut
## pure twist
#REACTION tStep 1 number 21 dof 3 value 0.5
#REACTION tStep 1 number 22 dof 3 value -0.5
#REACTION tStep 1 number 24 dof 3 value -0.5
#ELEMENT tStep 1 number 3 gp 1 keyword 4 component 4  value 0.0
#ELEMENT tStep 1 number 3 gp 1 keyword 4 component 5  value 0.0
#ELEMENT tStep 1 number 3 gp 1 keyword 4 component 6  value -18.51852
#ELEMENT tStep 1 number 3 gp 2 keyword 4 component 4  value 0.0
#ELEMENT tStep 1 number 3 gp 2 keyword 4 component 5  value 0.0
#ELEMENT tStep 1 number 3 gp 2 keyword 4 component 6  value -18.51852
#ELEMENT tStep 1 number 3 gp 3 keyword 4 component 4  value 0.0
#ELEMENT tStep 1 number 3 gp 3 keyword 4 component 5  value 0.0
#ELEMENT tStep 1 number 3 gp 3 keyword 4 component 6  value -18.51852
#ELEMENT tStep 1 number 3 gp 4 keyword 4 component 4  value 0.0
#ELEMENT tStep 1 number 3 gp 4 keyword 4 component 5  value 0.0
#ELEMENT tStep 1 number 3 gp 4 keyword 4 component 6  value -18.51852
#ELEMENT tStep 1 number 3 gp 1 keyword 1 component 4  value 0.0
#ELEMENT tStep 1 number 3 gp 1 keyword 1 component 5  value 0.0
#ELEMENT tStep 1 number 3 gp 1 keyword 1 component 6  value -0.25
#ELEMENT tStep 1 number 3 gp 2 keyword 1 component 4  value 0.0
#ELEMENT tStep 1 number 3 gp 2 keyword 1 component 5  value 0.0
#ELEMENT tStep 1 number 3 gp 2 keyword 1 component 6  value -0.25
#ELEMENT tStep 1 number 3 gp 3 keyword 1 component 4  value 0.0
#ELEMENT tStep 1 number 3 gp 3 keyword 1 component 5  value 0.0
# ... 4 like lines cut
## shear x
#REACTION tStep 1 number 31 dof 3 value -0.5
#REACTION tStep 1 number 31 dof 5 value  2.0
#REACTION tStep 1 number 34 dof 3 value -0.5
#REACTION tStep 1 number 31 dof 5 value  2.0
## shear y
#REACTION tStep 1 number 41 dof 3 value -0.5
#REACTION tStep 1 number 41 dof 4 value -2.0
#REACTION tStep 1 number 42 dof 3 value -0.5
#REACTION tStep 1 number 41 dof 4 value -2.0
#%END_CHECK%
#
