patch103.out
Patch test of PlaneStress2d elements -> thermal load
LinearStatic nsteps 1 nmodules 1
errorcheck
domain 2dPlaneStress
OutputManager tstep_all dofman_all element_all
ndofman 6 nelem 2 ncrosssect 1 nmat 1 nbc 3 nic 0 nltf 1 nset 3
Node 1 coords 3  0.0   0.0   0.0
Node 2 coords 3  0.0   4.0   0.0
Node 3 coords 3  3.0   0.0   0.0
Node 4 coords 3  3.0   4.0   0.0
Node 5 coords 3  6.0   0.0   0.0
Node 6 coords 3  6.0   4.0   0.0
PlaneStress2d 1 nodes 4 4 2 1 3  bodyLoads 1 3
PlaneStress2d 2 nodes 4 6 4 3 5  bodyLoads 1 3
SimpleCS 1 thick 0.15 material 1 set 1
IsoLE 1  tAlpha 0.000012  d 1.0  E 15.0  n 0.25  
BoundaryCondition  1 loadTimeFunction 1 dofs 2 1 2 values 2 0 0 set 2
BoundaryCondition  2 loadTimeFunction 1 dofs 1 2 values 1 0 set 3
StructTemperatureLoad 3 loadTimeFunction 1 Components 2 -30.0 0.0
ConstantFunction 1 f(t) 1.0
Set 1 elementranges {(1 2)}
Set 2 nodes 4 1 2 5 6
Set 3 nodes 2 3 4
#
#
#%BEGIN_CHECK% tolerance 1.e-10
## check reactions 
#REACTION tStep 1 number 1 dof 1 value -2.1600e-03
#REACTION tStep 1 number 1 dof 2 value -1.6200e-03
#REACTION tStep 1 number 2 dof 1 value -2.1600e-03
#REACTION tStep 1 number 2 dof 2 value 1.6200e-03
#REACTION tStep 1 number 3 dof 2 value -3.2400e-03
#REACTION tStep 1 number 4 dof 2 value 3.2400e-03
#REACTION tStep 1 number 5 dof 2 value -1.6200e-03
#REACTION tStep 1 number 6 dof 1 value 2.1600e-03
#REACTION tStep 1 number 6 dof 2 value 1.6200e-03
## check all nodes
#NODE tStep 1 number 1 dof 1 unknown d value 0.0
#NODE tStep 1 number 2 dof 1 unknown d value 0.0
#NODE tStep 1 number 3 dof 1 unknown d value 0.0
#NODE tStep 1 number 4 dof 1 unknown d value 0.0
#NODE tStep 1 number 5 dof 1 unknown d value 0.0
#NODE tStep 1 number 6 dof 1 unknown d value 0.0
##
#NODE tStep 1 number 1 dof 2 unknown d value 0.0
#NODE tStep 1 number 2 dof 2 unknown d value 0.0
#NODE tStep 1 number 3 dof 2 unknown d value 0.0
#NODE tStep 1 number 4 dof 2 unknown d value 0.0
#NODE tStep 1 number 5 dof 2 unknown d value 0.0
#NODE tStep 1 number 6 dof 2 unknown d value 0.0
## check element strain vector
#ELEMENT tStep 1 number 1 gp 1 keyword 4 component 1  value 0.0
#ELEMENT tStep 1 number 1 gp 1 keyword 4 component 2  value 0.
#ELEMENT tStep 1 number 1 gp 1 keyword 4 component 6  value 0.0
#ELEMENT tStep 1 number 2 gp 3 keyword 4 component 1  value 0.0
#ELEMENT tStep 1 number 2 gp 3 keyword 4 component 2  value 0.0
#ELEMENT tStep 1 number 2 gp 3 keyword 4 component 6  value 0.0
## check element stress vector
#ELEMENT tStep 1 number 1 gp 1 keyword 1 component 1  value 7.2000e-03
#ELEMENT tStep 1 number 1 gp 1 keyword 1 component 2  value 7.2000e-03
#ELEMENT tStep 1 number 1 gp 1 keyword 1 component 6  value 0.0
#ELEMENT tStep 1 number 2 gp 4 keyword 1 component 1  value 7.2000e-03
#ELEMENT tStep 1 number 2 gp 4 keyword 1 component 2  value 7.2000e-03
#ELEMENT tStep 1 number 2 gp 4 keyword 1 component 6  value 0.0
##
#%END_CHECK%
