qTrxFemCrackVal.out
Test case for xfem: a crack through 6-node triangle elements. Added by Erik Svenning.
StaticStructural nsteps 3 deltat 1.0 rtolf 1.0e-6 MaxIter 20 minIter 2 nmodules 1 
#StaticStructural nsteps 3 deltat 1.0 rtolf 1.0e-6 MaxIter 20 minIter 2 nmodules 1 lstype 3 smtype 7 initialguess 0
errorcheck
#vtkxml tstep_all domain_all primvars 1 1 cellvars 1 1
domain 2dPlaneStress
OutputManager tstep_all dofman_all element_all
ndofman 21 nelem 6 ncrosssect 1 nmat 1 nbc 2 nic 0 nltf 1 nxfemman 1 nset 3
node 1     coords 2  0        0
node 2     coords 2  1        0
node 3     coords 2  2        0
node 4     coords 2  3        0
node 5     coords 2  3        1
node 6     coords 2  2        1
node 7     coords 2  1        1
node 8     coords 2  0        1
node 9     coords 2  0.5      0
node 10    coords 2  1.5      0
node 11    coords 2  2.5      0
node 12    coords 2  3.0      0.5
node 13    coords 2  2.5      1
node 14    coords 2  1.5      1
node 15    coords 2  0.5      1
node 16    coords 2  0.0      0.5
node 17    coords 2  0.5      0.5
node 18    coords 2  1.0      0.5
node 19    coords 2  1.5      0.5
node 20    coords 2  2.0      0.5
node 21    coords 2  2.5      0.5
QTrPlaneStress2dXFEM 1    nodes 6   1   2   8   9   17   16   mat 1 nip 12 nlgeo 0 reg_coeff 1.0e-12 reg_coeff_tol 1.0e-12
QTrPlaneStress2dXFEM 2    nodes 6   2   7   8   18  15   17   mat 1 nip 12 nlgeo 0 reg_coeff 1.0e-12 reg_coeff_tol 1.0e-12
QTrPlaneStress2dXFEM 3    nodes 6   2   6   7   19  14   18   mat 1 nip 12 nlgeo 0 reg_coeff 1.0e-12 reg_coeff_tol 1.0e-12
QTrPlaneStress2dXFEM 4    nodes 6   2   3   6   10  20   19   mat 1 nip 12 nlgeo 0 reg_coeff 1.0e-12 reg_coeff_tol 1.0e-12
QTrPlaneStress2dXFEM 5    nodes 6   3   4   6   11  21   20   mat 1 nip 12 nlgeo 0 reg_coeff 1.0e-12 reg_coeff_tol 1.0e-12
QTrPlaneStress2dXFEM 6    nodes 6   4   5   6   12  13   21   mat 1 nip 12 nlgeo 0 reg_coeff 1.0e-12 reg_coeff_tol 1.0e-12
SimpleCS 1 thick 1.0e-3 material 1 set 1
IsoLE 1 d 0.0 E 210.0e9 n 0.3 tAlpha 0.0
BoundaryCondition 1 loadTimeFunction 1 dofs 2 1 2 values 2 0.0  0.0 set 2
BoundaryCondition 2 loadTimeFunction 1 dofs 2 1 2 values 2 0.2 -0.3 set 3
ConstantFunction 1 f(t) 1.0
Set 1 elementranges {(1 6)}
Set 2 nodes 2 1 8
Set 3 nodes 2 4 5
XfemManager 1 numberofenrichmentitems 1 vtkexport 0 exportfields 3 2 3 4
crack 1 enrichmentfront 1 propagationlaw 1
DiscontinuousFunction 1
#PolygonLine 1 points 8 1.2  2.5 1.2  2.0 1.3 1.1 1.65 0.59378
PolygonLine 1 points 8 1.2  2.5 1.2  2.0 1.2 0.2 1.2 -0.2
EnrFrontDoNothing
EnrFrontDoNothing
PropagationLawCrackPrescribedDir 1 angle -60.0 incrementLength 0.7
#%BEGIN_CHECK% tolerance 1.e-8
## Node displacements
#NODE tStep 2 number 1 dof 1 unknown d value 0.0
#NODE tStep 2 number 1 dof 2 unknown d value 0.0
#NODE tStep 2 number 2 dof 1 unknown d value 0.0
#NODE tStep 2 number 2 dof 2 unknown d value 0.0
#NODE tStep 2 number 2 dof 500 unknown d value 0.1
#NODE tStep 2 number 2 dof 501 unknown d value -0.15
#NODE tStep 2 number 3 dof 1 unknown d value 0.2
#NODE tStep 2 number 3 dof 2 unknown d value -0.3
#NODE tStep 2 number 3 dof 500 unknown d value 0.1
#NODE tStep 2 number 3 dof 501 unknown d value -0.15
#NODE tStep 2 number 4 dof 1 unknown d value 0.2
#NODE tStep 2 number 4 dof 2 unknown d value -0.3
#NODE tStep 2 number 5 dof 1 unknown d value 0.2
#NODE tStep 2 number 5 dof 2 unknown d value -0.3
#NODE tStep 2 number 6 dof 1 unknown d value 0.2
#NODE tStep 2 number 6 dof 2 unknown d value -0.3
#NODE tStep 2 number 6 dof 500 unknown d value 0.1
#NODE tStep 2 number 6 dof 501 unknown d value -0.15
#NODE tStep 2 number 7 dof 1 unknown d value 0.0
#NODE tStep 2 number 7 dof 2 unknown d value 0.0
# ... 4 like lines cut
##
#%END_CHECK%





