quasicontinuum2d.out
quasicontinuum simulation of 2d disordered elastic latices - shear test with area of high interest
qcLinearStatic nsteps 1 nmodules 0 QcApproach 3 mtrxt 2 geninterpelem 0 intMatNum 4 fsd_b 6 5. 0. 0. 10. 10. 0 
#qcvtkxml tstep_all domain_all primvars 1 1 vars 2 1 4 cellvars 2 1 4 expDeaktElem 0
domain 2dplanestress
OutputManager tstep_all dofman_all element_all
ndofman 25 nelem 100 ncrosssect 3 nmat 4 nbc 3 nic 0 nltf 2
qcNode 1 coords 3 0.000000e+00 0.000000e+00 0.0  bc 2 1 1
qcNode 2 coords 3 2.847687e+00  0.000000e+00 0.0 bc 2 0 0
qcNode 3 coords 3 4.514334e+00 0.000000e+00 0.0  bc 2 0 0
qcNode 4 coords 3 7.650228e+00 0.000000e+00 0.0  bc 2 0 0
qcNode 5 coords 3 1.000000e+01 0.000000e+00 0.0  bc 2 1 2
qcNode 6 coords 3 0.000000e+00  1.888150e+00 0.0 bc 2 1 1
qcNode 7 coords 3 2.279152e+00  2.054310e+00 0.0 bc 2 0 0
qcNode 8 coords 3 5.511316e+00 2.689578e+00 0.0  bc 2 0 0
qcNode 9 coords 3 8.194482e+00 2.736867e+00 0.0  bc 2 0 0
qcNode 10 coords 3 1.000000e+01 2.908199e+00 0.0  bc 2 1 2
qcNode 11 coords 3 0.000000e+00 5.283221e+00 0.0  bc 2 1 1
qcNode 12 coords 3 1.805933e+00  4.443352e+00 0.0 bc 2 0 0
qcNode 13 coords 3 5.538502e+00 4.285887e+00 0.0  bc 2 0 0
qcNode 14 coords 3 7.817949e+00 5.322991e+00 0.0  bc 2 0 0
qcNode 15 coords 3 1.000000e+01 4.533801e+00 0.0  bc 2 1 2
qcNode 16 coords 3 0.000000e+00  7.518110e+00 0.0 bc 2 1 1
qcNode 17 coords 3 2.881217e+00  7.342949e+00 0.0 bc 2 0 0
qcNode 18 coords 3 4.747469e+00  8.177722e+00 0.0 bc 2 0 0
qcNode 19 coords 3 7.185151e+00 8.148417e+00 0.0  bc 2 0 0
qcNode 20 coords 3 1.000000e+01 7.365763e+00 0.0  bc 2 1 2
# ... 5 like lines cut
Truss2d 1 nodes 2 1 2 mat 1 crossSect 1 cs 1
Truss2d 2 nodes 2 1 6 mat 2 crossSect 1 cs 1
Truss2d 3 nodes 2 1 7 mat 3 crossSect 1 cs 1
Truss2d 4 nodes 2 6 2 mat 3 crossSect 1 cs 1
Truss2d 5 nodes 2 6 7 mat 1 crossSect 1 cs 1
Truss2d 6 nodes 2 2 7 mat 2 crossSect 1 cs 1
Truss2d 7 nodes 2 2 3 mat 1 crossSect 1 cs 1
Truss2d 8 nodes 2 2 7 mat 2 crossSect 1 cs 1
Truss2d 9 nodes 2 2 8 mat 3 crossSect 1 cs 1
Truss2d 10 nodes 2 7 3 mat 3 crossSect 1 cs 1
Truss2d 11 nodes 2 7 8 mat 1 crossSect 1 cs 1
Truss2d 12 nodes 2 3 8 mat 2 crossSect 1 cs 1
Truss2d 13 nodes 2 3 4 mat 1 crossSect 1 cs 1
Truss2d 14 nodes 2 3 8 mat 2 crossSect 1 cs 1
Truss2d 15 nodes 2 3 9 mat 3 crossSect 1 cs 1
Truss2d 16 nodes 2 8 4 mat 3 crossSect 1 cs 1
Truss2d 17 nodes 2 8 9 mat 1 crossSect 1 cs 1
Truss2d 18 nodes 2 4 9 mat 2 crossSect 1 cs 1
Truss2d 19 nodes 2 4 5 mat 1 crossSect 1 cs 1
Truss2d 20 nodes 2 4 9 mat 2 crossSect 1 cs 1
# ... 76 like lines cut
TrPlaneStress2d 97 nodes 3 1 3 13 mat 4 crossSect 3
TrPlaneStress2d 98 nodes 3 1 13 11 mat 4 crossSect 3
TrPlaneStress2d 99 nodes 3 11 13 23 mat 4 crossSect 3
TrPlaneStress2d 100 nodes 3 11 23 21 mat 4 crossSect 3
SimpleCS 1 thick 1.0 width 1.0
SimpleCS 2 thick 1.0e-10 width 0.0
SimpleCS 3 thick 1.0e-10 width 0.0
IsoLE 1 d 0. E 9.375000e+02 n 0.2 tAlpha 0.
IsoLE 2 d 0. E 9.375000e+02 n 0.2 tAlpha 0.
IsoLE 3 d 0. E 1.325825e+03 n 0.2 tAlpha 0.
IsoLE 4 d 0. E 1.0e-10 n 0.0 tAlpha 0.
BoundaryCondition 1 loadTimeFunction 1 prescribedvalue 0.0
BoundaryCondition 2 loadTimeFunction 2 prescribedvalue 0.001
NodalLoad 3 loadTimeFunction 2 Components 2 10.0 0.0
ConstantFunction 1 f(t) 1.0
PiecewiseLinFunction 2 npoints 2 t 2 0. 10000 f(t) 2 0. 10000.
#
#%BEGIN_CHECK% tolerance 1.e-8
## check selected nodes
#NODE tStep 1 number 5 dof 1 unknown d value 0.00000000e+00
#NODE tStep 1 number 5 dof 2 unknown d value 1.00000000e-03
#NODE tStep 1 number 6 dof 1 unknown d value 0.00000000e+00
#NODE tStep 1 number 6 dof 2 unknown d value 0.00000000e+00
#NODE tStep 1 number 7 dof 1 unknown d value 1.61418648e-05
#NODE tStep 1 number 7 dof 2 unknown d value 2.08970677e-04
#NODE tStep 1 number 12 dof 1 unknown d value 1.27903388e-05
#NODE tStep 1 number 12 dof 2 unknown d value 1.65582217e-04
#NODE tStep 1 number 16 dof 1 unknown d value 0.00000000e+00
#NODE tStep 1 number 16 dof 2 unknown d value 0.00000000e+00
#NODE tStep 1 number 17 dof 1 unknown d value -6.21654316e-05
#NODE tStep 1 number 17 dof 2 unknown d value 2.51573859e-04
##
## check element strain vector
#ELEMENT tStep 1 number  3 gp 1 keyword 4 component 1  value 4.9505e-05
#ELEMENT tStep 1 number  5 gp 1 keyword 4 component 1  value 1.3694e-05
#ELEMENT tStep 1 number  6 gp 1 keyword 4 component 1  value -2.0697e-05
#ELEMENT tStep 1 number  9 gp 1 keyword 4 component 1  value 2.4273e-05
#ELEMENT tStep 1 number 11 gp 1 keyword 4 component 1  value 2.1849e-05
##
## check reactions 
#REACTION tStep 1 number 10 dof 1 value -4.4716e-02
#REACTION tStep 1 number 10 dof 2 value 5.5369e-02
#REACTION tStep 1 number 11 dof 1 value 7.9276e-03 
#REACTION tStep 1 number 11 dof 2 value -1.0434e-01
##
#%END_CHECK%
