quasicontinuum3d.out
quasicontinuum 3d test
#qcLinearStatic nsteps 1 nmodules 0 QcApproach 3 mtrxt 1 geninterpelem 1 t3dfile quasicontinuum3d.t3d.in imsize 100
qcLinearStatic nsteps 1 nmodules 0 QcApproach 3 mtrxt 1 geninterpelem 2 t3dfile quasicontinuum3d.out.t3d
#qcvtkxml tstep_all domain_all primvars 1 1 vars 2 1 4 cellvars 2 1 4 expDeaktElem 0
domain 3d
OutputManager tstep_all dofman_all element_all
ndofman 125 nelem 780 ncrosssect 1 nmat 1 nbc 4 nic 0 nltf 2
qcNode 1 coords 3 0.000000e+00 0.000000e+00 0.000000e+00  bc 3 1 1 1
qcNode 2 coords 3 2.386392e+01 0.000000e+00 0.000000e+00  bc 3 0 0 1
qcNode 3 coords 3 5.704490e+01 0.000000e+00 0.000000e+00  bc 3 0 0 1
qcNode 4 coords 3 8.160597e+01 0.000000e+00 0.000000e+00  bc 3 0 0 1
qcNode 5 coords 3 1.000000e+02 0.000000e+00 0.000000e+00  bc 3 0 1 1
qcNode 6 coords 3 0.000000e+00 3.025520e+01 0.000000e+00  bc 3 0 0 1
qcNode 7 coords 3 2.507359e+01 1.811778e+01 0.000000e+00  bc 3 0 0 1
qcNode 8 coords 3 5.616520e+01 2.526394e+01 0.000000e+00  bc 3 0 0 1
qcNode 9 coords 3 7.893643e+01 2.447111e+01 0.000000e+00  bc 3 0 0 1
qcNode 10 coords 3 1.000000e+02 1.850615e+01 0.000000e+00  bc 3 0 0 1
qcNode 11 coords 3 0.000000e+00 5.324879e+01 0.000000e+00  bc 3 0 0 1
qcNode 12 coords 3 2.148997e+01 4.942390e+01 0.000000e+00  bc 3 0 0 1
qcNode 13 coords 3 5.665355e+01 4.817626e+01 0.000000e+00  bc 3 0 0 1
qcNode 14 coords 3 7.794694e+01 4.881804e+01 0.000000e+00  bc 3 0 0 1
qcNode 15 coords 3 1.000000e+02 5.060307e+01 0.000000e+00  bc 3 0 0 1
qcNode 16 coords 3 0.000000e+00 7.195549e+01 0.000000e+00  bc 3 0 0 1
qcNode 17 coords 3 2.474393e+01 8.183198e+01 0.000000e+00  bc 3 0 0 1
qcNode 18 coords 3 5.179461e+01 8.342655e+01 0.000000e+00  bc 3 0 0 1
qcNode 19 coords 3 7.216134e+01 7.447822e+01 0.000000e+00  bc 3 0 0 1
qcNode 20 coords 3 1.000000e+02 6.760755e+01 0.000000e+00  bc 3 0 0 1
# ... 105 like lines cut
Truss3d 1 nodes 2 1 2 mat 1 crossSect 1
Truss3d 2 nodes 2 1 6 mat 1 crossSect 1
Truss3d 3 nodes 2 1 7 mat 1 crossSect 1
Truss3d 4 nodes 2 2 6 mat 1 crossSect 1
Truss3d 5 nodes 2 1 26 mat 1 crossSect 1
Truss3d 6 nodes 2 1 27 mat 1 crossSect 1
Truss3d 7 nodes 2 26 2 mat 1 crossSect 1
Truss3d 8 nodes 2 1 31 mat 1 crossSect 1
Truss3d 9 nodes 2 26 6 mat 1 crossSect 1
Truss3d 10 nodes 2 2 3 mat 1 crossSect 1
Truss3d 11 nodes 2 2 7 mat 1 crossSect 1
Truss3d 12 nodes 2 2 8 mat 1 crossSect 1
Truss3d 13 nodes 2 3 7 mat 1 crossSect 1
Truss3d 14 nodes 2 2 27 mat 1 crossSect 1
Truss3d 15 nodes 2 2 28 mat 1 crossSect 1
Truss3d 16 nodes 2 27 3 mat 1 crossSect 1
Truss3d 17 nodes 2 2 32 mat 1 crossSect 1
Truss3d 18 nodes 2 27 7 mat 1 crossSect 1
Truss3d 19 nodes 2 3 4 mat 1 crossSect 1
Truss3d 20 nodes 2 3 8 mat 1 crossSect 1
# ... 760 like lines cut
SimpleCS 1 thick 1.0 width 1.0
IsoLE 1 d 0. E 1.000000e+03 n 0.2 tAlpha 0.
BoundaryCondition 1 loadTimeFunction 1 prescribedvalue 0.0
BoundaryCondition 2 loadTimeFunction 2 prescribedvalue 0.001
NodalLoad 3 loadTimeFunction 2 Components 2 10.0 0.0
BoundaryCondition 4 loadTimeFunction 2 prescribedvalue 0.002
ConstantFunction 1 f(t) 1.0
PiecewiseLinFunction 2 npoints 2 t 2 0. 10000 f(t) 2 0. 10000.
#
#%BEGIN_CHECK% tolerance 1.e-8
## check selected nodes
#NODE tStep 1 number 13 dof 1 unknown d value -1.60994912e-04
#NODE tStep 1 number 13 dof 2 unknown d value -1.31229798e-04
#NODE tStep 1 number 13 dof 3 unknown d value 0.00000000e+00
#NODE tStep 1 number 27 dof 1 unknown d value -5.53110189e-05
#NODE tStep 1 number 27 dof 2 unknown d value -8.16073291e-06
#NODE tStep 1 number 27 dof 3 unknown d value 2.93714152e-04
##
## check element strain vector
#ELEMENT tStep 1 number  1  gp 1 keyword 4 component 1  value -2.6818e-06
#ELEMENT tStep 1 number  79 gp 1 keyword 4 component 1  value 2.1534e-06
##
#%END_CHECK%
