rigarm02.out
Test of rigid arm node
#only momentum influence to the displacements is taken into account
#beamShearCoeff is artificially enlarged.
LinearStatic nsteps 1 nmodules 1
errorcheck filename "rigarm02.in"
domain 2dBeam
OutputManager tstep_all dofman_all element_all
ndofman 4 nelem 2 ncrosssect  1 nmat 1 nbc 2 nic 0 nltf 1
node 1 coords 3 0.  0. 3.0  bc 3  1 1 0
node 2 coords 3 1.5 0. 3.0  bc 3  0 0 0
node 3 coords 3 3.0 0. 3.0  bc 3  0 1 0 
rigidarmnode 4 coords 3 3.0 0. 2.5 master 3 load 1 2 masterMask 3 1 1 1 dofType 3 2 2 2
Beam2d 1 nodes 2 1 2 mat 1 crossSect 1 
Beam2d 2 nodes 2 2 3 mat 1 crosssect 1
SimpleCS 1 area 1. Iy 1.0 beamShearCoeff 1.e18
IsoLE 1 d 1. E 2. n 0.2 tAlpha 1.2e-5
BoundaryCondition  1 loadTimeFunction 1 prescribedvalue 0.0
NodalLoad          2 loadTimeFunction 1 Components 3 3.0 0.0 0.0
ConstantFunction 1 f(t) 1.
#
# exact solution
#
#%BEGIN_CHECK% tolerance 1.e-8
## check reactions 
#REACTION tStep 1 number 1 dof 1 value -3.0
#REACTION tStep 1 number 1 dof 3 value  0.5
#REACTION tStep 1 number 3 dof 3 value -0.5
##
## check all nodes
#NODE tStep 1 number 1 dof 1 unknown d value 0.0
#NODE tStep 1 number 1 dof 3 unknown d value 0.0
#NODE tStep 1 number 1 dof 5 unknown d value 0.375
#NODE tStep 1 number 2 dof 1 unknown d value 2.25
#NODE tStep 1 number 2 dof 3 unknown d value -0.421875
#NODE tStep 1 number 2 dof 5 unknown d value 0.09375
#NODE tStep 1 number 3 dof 1 unknown d value 4.5
#NODE tStep 1 number 3 dof 3 unknown d value 0.0
#NODE tStep 1 number 3 dof 5 unknown d value -0.75
#NODE tStep 1 number 4 dof 1 unknown d value 4.875
#NODE tStep 1 number 4 dof 3 unknown d value 0.0
#NODE tStep 1 number 4 dof 5 unknown d value -0.75
## check element no. 3 force vector
#ELEMENT tStep 1 number 1 gp 1 keyword 7 component 1  value 3.0
#ELEMENT tStep 1 number 1 gp 1 keyword 7 component 2  value -8.45262490e-02
#ELEMENT tStep 1 number 1 gp 1 keyword 7 component 3  value -1.33333333e+00
#ELEMENT tStep 1 number 2 gp 1 keyword 7 component 1  value 3.0
#ELEMENT tStep 1 number 2 gp 1 keyword 7 component 2  value -8.34526249e-01
#ELEMENT tStep 1 number 2 gp 1 keyword 7 component 3  value 6.66666667e-01
#%END_CHECK%
