rigarm02.out
Test of rigid arm node
#only momentum influence to the displacements is taken into account
#beamShearCoeff is artificially enlarged.
LinearStatic nsteps 1 nmodules 1
errorcheck
domain 2dBeam
OutputManager tstep_all dofman_all element_all
ndofman 4 nelem 2 ncrosssect 1 nmat 1 nbc 3 nic 0 nltf 1 nset 4
node 1 coords 3 0.  0. 3.0
node 2 coords 3 1.5 0. 3.0
node 3 coords 3 3.0 0. 3.0 dofidmask 3 1 3 5
rigidarmnode 4 coords 3 3.0 0. 2.5 master 3 dofidmask 3 1 3 5 masterMask 3 1 1 1 dofType 3 2 2 2
Beam2d 1 nodes 2 1 2
Beam2d 2 nodes 2 2 3
SimpleCS 1 area 1. Iy 1.0 beamShearCoeff 1.e18 material 1 set 1
IsoLE 1 d 1. E 2. n 0.2 tAlpha 1.2e-5
BoundaryCondition 1 loadTimeFunction 1 dofs 2 1 3 values 2 0.0 0.0 set 2
BoundaryCondition 2 loadTimeFunction 1 dofs 1   3 values 1     0.0 set 3
NodalLoad         3 loadTimeFunction 1 dofs 3 1 3 5 Components 3 3.0 0.0 0.0 set 4
ConstantFunction 1 f(t) 1.
Set 1 elementranges {(1 2)}
Set 2 nodes 1 1
Set 3 nodes 1 3
Set 4 nodes 1 4
#
# exact solution
#
#%BEGIN_CHECK% tolerance 1.e-8
## check reactions 
#REACTION tStep 1 number 1 dof 1 value -3.0
#REACTION tStep 1 number 1 dof 3 value  0.5
#REACTION tStep 1 number 3 dof 3 value -0.5
##
## check all nodes
#NODE tStep 1 number 1 dof 1 unknown d value 0.0
#NODE tStep 1 number 1 dof 3 unknown d value 0.0
#NODE tStep 1 number 1 dof 5 unknown d value 0.375
#NODE tStep 1 number 2 dof 1 unknown d value 2.25
#NODE tStep 1 number 2 dof 3 unknown d value -0.421875
#NODE tStep 1 number 2 dof 5 unknown d value 0.09375
#NODE tStep 1 number 3 dof 1 unknown d value 4.5
#NODE tStep 1 number 3 dof 3 unknown d value 0.0
#NODE tStep 1 number 3 dof 5 unknown d value -0.75
#NODE tStep 1 number 4 dof 1 unknown d value 4.875
#NODE tStep 1 number 4 dof 3 unknown d value 0.0
#NODE tStep 1 number 4 dof 5 unknown d value -0.75
## check element no. 3 force vector
#BEAM_ELEMENT tStep 1 number 1 keyword 1 component 1  value -3.0
#BEAM_ELEMENT tStep 1 number 1 keyword 1 component 2  value 0.5
#BEAM_ELEMENT tStep 1 number 1 keyword 1 component 3  value 0.0
#BEAM_ELEMENT tStep 1 number 2 keyword 1 component 1  value -3.0
#BEAM_ELEMENT tStep 1 number 2 keyword 1 component 2  value 0.5
#BEAM_ELEMENT tStep 1 number 2 keyword 1 component 3  value 0.75
#%END_CHECK%
