rigarm01.out
Test of rigid arm node
#only momentum influence to the displacements is taken into account
#beamShearCoeff is artificially enlarged.
LinearStatic nsteps 1
domain 2dBeam
OutputManager tstep_all dofman_all element_all
ndofman 4 nelem 2 ncrosssect  1 nmat 1 nbc 2 nic 0 nltf 1
node 1 coords 3 0.  0. 3.0  bc 3 1 1 1
node 2 coords 3 3.0 0. 3.0  bc 3 0 0 0
rigidarmnode 3 coords 3 3.0 0. 1.0 master 2 masterMask 3 1 1 1 dofType 3 2 2 2
node 4         coords 3 6.0 0. 1.0  load 1 2
Beam2d 1 nodes 2 1 2 mat 1 crossSect 1 
Beam2d 2 nodes 2 3 4 mat 1 crosssect 1
SimpleCS 1 area 1. Iy 1.0 beamShearCoeff 1.e18 thick 0.52 
IsoLE 1 d 1. E 2. n 0.2 tAlpha 1.2e-5
BoundaryCondition  1 loadTimeFunction 1 prescribedvalue 0.0
NodalLoad          2 loadTimeFunction 1 Components 3 2.0 0.0 0.0
ConstantFunction 1 f(t) 1.
#
# exact solution
#
#%BEGIN_CHECK% tolerance 1.e-8
## check reactions 
#REACTION tStep 1 number 1 dof 1 value -2.0000e+00
#REACTION tStep 1 number 1 dof 2 value  0.0
#REACTION tStep 1 number 1 dof 3 value  4.0000e+00
##
## check all nodes
#NODE tStep 1 number 1 dof 1 unknown d value 0.0
#NODE tStep 1 number 1 dof 2 unknown d value 0.0
#NODE tStep 1 number 1 dof 3 unknown d value 0.0
#NODE tStep 1 number 2 dof 1 unknown d value 3.0
#NODE tStep 1 number 2 dof 2 unknown d value 9.0
#NODE tStep 1 number 2 dof 3 unknown d value -6.0
#NODE tStep 1 number 3 dof 1 unknown d value 15.0
#NODE tStep 1 number 3 dof 2 unknown d value 9.0
#NODE tStep 1 number 3 dof 3 unknown d value -6.0
#NODE tStep 1 number 4 dof 1 unknown d value 18.0
#NODE tStep 1 number 4 dof 2 unknown d value 27.0
#NODE tStep 1 number 4 dof 3 unknown d value -6.0
## check element no. 1,2 force vector
#BEAM_ELEMENT tStep 1 number 1  keyword "forces" component 1  value -2.0000e+00
#BEAM_ELEMENT tStep 1 number 1  keyword "forces" component 2  value  0.0
#BEAM_ELEMENT tStep 1 number 1  keyword "forces" component 3  value  4.0000e+00
#BEAM_ELEMENT tStep 1 number 2  keyword "forces" component 4  value  2.0000e+00
#BEAM_ELEMENT tStep 1 number 2  keyword "forces" component 5  value  0.0
#BEAM_ELEMENT tStep 1 number 2  keyword "forces" component 6  value  0.0
#%END_CHECK%
