rigarm04.out
Test of rigid arm node
#only momentum influence to the displacements is taken into account
#beamShearCoeff is artificially enlarged.
LinearStatic nsteps 1 nmodules 1
errorcheck
domain 2dBeam
OutputManager tstep_all dofman_all element_all
ndofman 3 nelem 1 ncrosssect 1 nmat 1 nbc 3 nic 0 nltf 1 nset 0
node 1 coords 3 0.  0. 0.0  bc 3 1 1 1
node 2 coords 3 3.0 0. 3.0  bc 3 1 1 2
rigidarmnode 3 coords 3 3.0 0. 0.0 master 2 masterMask 3 1 0 1 bc 3 0 0 0 load 1 3 dofType 3 2 0 2
Beam2d 1 nodes 2 1 3 crossSect 1 DofsToCondense 1 6
SimpleCS 1 area 1. Iy 1.0 beamShearCoeff 1.e18 material 1
IsoLE 1 d 1. E 2. n 0.2 tAlpha 1.2e-5
BoundaryCondition  1 loadTimeFunction 1 prescribedvalue 0.0
BoundaryCondition  2 loadTimeFunction 1 prescribedvalue 1.0
NodalLoad          3 loadTimeFunction 1 dofs 3 1 3 5 Components 3 0.0 1.0 0.0
ConstantFunction 1 f(t) 1.
#
# exact solution
#
#%BEGIN_CHECK% tolerance 1.e-8
## check reactions 
#REACTION tStep 1 number 1 dof 1 value  2.0000e+00
#REACTION tStep 1 number 1 dof 3 value  -1.0
#REACTION tStep 1 number 1 dof 5 value  3.0000e+00
#REACTION tStep 1 number 2 dof 1 value  -2.0
#REACTION tStep 1 number 2 dof 3 value  0.0
#REACTION tStep 1 number 2 dof 5 value  6.0
##
## check all nodes
#NODE tStep 1 number 1 dof 1 unknown d value 0.0
#NODE tStep 1 number 1 dof 3 unknown d value 0.0
#NODE tStep 1 number 1 dof 5 unknown d value 0.0
#NODE tStep 1 number 2 dof 1 unknown d value 0.0
#NODE tStep 1 number 2 dof 3 unknown d value 0.0
#NODE tStep 1 number 2 dof 5 unknown d value 1.0
#NODE tStep 1 number 3 dof 1 unknown d value -3.0
#NODE tStep 1 number 3 dof 3 unknown d value 4.5
#NODE tStep 1 number 3 dof 5 unknown d value 1.0
## check element no. 1,2 force vector
#ELEMENT tStep 1 number 1 gp 1 keyword 7 component 1  value -2.0000e+00
#ELEMENT tStep 1 number 1 gp 1 keyword 7 component 2  value -5.53010669e+00
#ELEMENT tStep 1 number 1 gp 1 keyword 7 component 3  value  4.44444444e+00
#ELEMENT tStep 1 number 1 gp 1 keyword 7 component 1  value -2.0000e+00
#ELEMENT tStep 1 number 1 gp 1 keyword 7 component 2  value -5.53010669e+00
#ELEMENT tStep 1 number 1 gp 1 keyword 7 component 3  value  4.44444444e+00
#%END_CHECK%
