rigarm03.out
Test of rigid arm node
#only momentum influence to the displacements is taken into account
#beamShearCoeff is artificially enlarged.
LinearStatic nsteps 1 nmodules 1
errorcheck
domain 2dBeam
OutputManager tstep_all dofman_all element_all
ndofman 4 nelem 2 ncrosssect 1 nmat 1 nbc 3 nic 0 nltf 1 nset 4
node 1 coords 3 0.  0. 3.0
node 2 coords 3 1.5 0. 3.0
node 3 coords 3 3.0 0. 3.0 dofidmask 3 1 3 5 lcs 6 0.866025 0.0 -0.5  0.0 1.0 0.0
rigidarmnode 4 coords 3 3.0 0. 2.5 master 3 dofidmask 3 1 3 5 doftype 3 2 2 2 mastermask 3 1 1 1 lcs 6 0.866025 0.0 -0.5  0.0 1.0 0.0
Beam2d 1 nodes 2 1 2
Beam2d 2 nodes 2 2 3
SimpleCS 1 area 1. Iy 1.0 beamShearCoeff 1.e18 material 1 set 1
IsoLE 1 d 1. E 2. n 0.2 tAlpha 1.2e-5
BoundaryCondition 1 loadTimeFunction 1 dofs 2 1 3 values 2 0.0 0.0 set 2
BoundaryCondition 2 loadTimeFunction 1 dofs 1   3 values 1     0.0 set 3
NodalLoad         3 loadTimeFunction 1 dofs 3 1 3 5 Components 3 3.0 0.0 0.0 cstype 0 set 4
ConstantFunction 1 f(t) 1.
Set 1 elementranges {(1 2)}
Set 2 nodes 1 1
Set 3 nodes 1 3
Set 4 nodes 1 4
#
# exact solution
#
#%BEGIN_CHECK% tolerance 1.e-4
## check reactions
#REACTION tStep 1 number 1 dof 1 value -2.71132
#REACTION tStep 1 number 1 dof 3 value  0.5
#REACTION tStep 1 number 3 dof 3 value -0.57735
##
## check all nodes
#NODE tStep 1 number 1 dof 1 unknown d value 0.0
#NODE tStep 1 number 1 dof 3 unknown d value 0.0
#NODE tStep 1 number 1 dof 5 unknown d value 1.15769
#NODE tStep 1 number 3 dof 1 unknown d value 4.6961439
#NODE tStep 1 number 3 dof 3 unknown d value 0.0
## check element no. 3 force vector
#BEAM_ELEMENT tStep 1 number 1 keyword 1 component 1  value -2.7113e+00
#BEAM_ELEMENT tStep 1 number 1 keyword 1 component 2  value 5.0000e-01
#BEAM_ELEMENT tStep 1 number 1 keyword 1 component 3  value 0.0
#BEAM_ELEMENT tStep 1 number 2 keyword 1 component 1  value -2.7113e+00
#BEAM_ELEMENT tStep 1 number 2 keyword 1 component 2  value 5.0000e-01
#BEAM_ELEMENT tStep 1 number 2 keyword 1 component 3  value 7.5000e-01
#%END_CHECK%
