rotated_1.out
Patch test of Truss2d elements -> simple structure with rotated support 
LinearStatic nsteps 1 nmodules 1
errorcheck
domain 2dTruss
OutputManager tstep_all dofman_all element_all
ndofman 3 nelem 3 ncrosssect 1 nmat 1 nbc 3 nic 0 nltf 1 nset 4
node 1 coords 3 0.  0.  0.
node 2 coords 3 5.  0.  0.  lcs 6 0.8660254 0.0 0.5 0.0 1.0 0.0
node 3 coords 3 0.  0. 10.
Truss2d 1 nodes 2 1 2
Truss2d 2 nodes 2 1 3
Truss2d 3 nodes 2 2 3
SimpleCS 1 thick 0.1 width 1.0 material 1 set 1
IsoLE 1 d 1. E 1.0 n 0.2  tAlpha 0.000012
BoundaryCondition 1 loadTimeFunction 1 dofs 2 1 3 values 2 0.0 0.0 set 2
BoundaryCondition 2 loadTimeFunction 1 dofs 1 3 values 1 0.0 set 3
NodalLoad 3 loadTimeFunction 1 dofs 2 1 3 Components 2 1.0 0.0 set 4
ConstantFunction 1 f(t) 1.0
Set 1 elementranges {(1 3)}
Set 2 nodes 1 1
Set 3 nodes 1 2
Set 4 nodes 1 3
#
#
#%BEGIN_CHECK% tolerance 1.e-4
## check reactions 
#REACTION tStep 1 number 1 dof 1 value 1.5470e-01
#REACTION tStep 1 number 1 dof 3 value -2.00000
#REACTION tStep 1 number 2 dof 3 value 2.3094e+00
## check all nodes
## check element  strain vector
#ELEMENT tStep 1 number 1 gp 1 keyword 4 component 1  value -1.5470e+00
#ELEMENT tStep 1 number 2 gp 1 keyword 4 component 1  value  2.0000e+01
#ELEMENT tStep 1 number 3 gp 1 keyword 4 component 1  value -2.236068e+01
## check element stress vector
#ELEMENT tStep 1 number 1 gp 1 keyword 1 component 1  value -1.5470e+00
#ELEMENT tStep 1 number 2 gp 1 keyword 1 component 1  value  2.0000e+01
#ELEMENT tStep 1 number 3 gp 1 keyword 1 component 1  value -2.236068e+01
#%END_CHECK%
#
# EXACT RESULTS:
#
#
#
#Output for time step number 1
#
#element 1 :
#  GP 1 :  strains  -1.5470e-01
#          stresses -1.5470e-01
#          status {}
#element 2 :
#  GP 1 :  strains   2.0000e+00
#          stresses  2.0000e+00
#          status {}
#element 3 :
#  GP 1 :  strains  -2.2361e+00
#          stresses -2.2361e+00
#          status {}
#
#
#        R E A C T I O N S  O U T U T:
#        _____________________________
#
#
#        Node     1 iDof     1 reaction  1.5470e-01
#        Node     1 iDof     2 reaction -2.0000e+00
#        Node     2 iDof     2 reaction  2.3094e+00

