scordelis_mitc4.out
"Cylindrical Scordelis-Lo shell"
linearstatic nsteps 1 nmodules 1
errorcheck
domain 3dShell
OutputManager tstep_all dofman_all element_all
ndofman 25 nelem 16 ncrosssect 4 nmat 1 nbc 5 nic 0 nltf 1 nset 5
node 1 coords 3 0.000000 0.000000 300.000000
node 2 coords 3 0.000000 52.094453 295.442326
node 3 coords 3 0.000000 102.606043 281.907786
node 4 coords 3 0.000000 150.000000 259.807621
node 5 coords 3 0.000000 192.836283 229.813333 lcs 6 1 0 0 0 0.766044 -0.642788
node 6 coords 3 75.000000 0.000000 300.000000
node 7 coords 3 75.000000 52.094453 295.442326
node 8 coords 3 75.000000 102.606043 281.907786
node 9 coords 3 75.000000 150.000000 259.807621
node 10 coords 3 75.000000 192.836283 229.813333 lcs 6 1 0 0 0 0.766044 -0.642788 
node 11 coords 3 150.000000 0.000000 300.000000
node 12 coords 3 150.000000 52.094453 295.442326
node 13 coords 3 150.000000 102.606043 281.907786
node 14 coords 3 150.000000 150.000000 259.807621
node 15 coords 3 150.000000 192.836283 229.813333 lcs 6 1 0 0 0 0.766044 -0.642788
node 16 coords 3 225.000000 0.000000 300.000000
node 17 coords 3 225.000000 52.094453 295.442326
node 18 coords 3 225.000000 102.606043 281.907786
node 19 coords 3 225.000000 150.000000 259.807621
node 20 coords 3 225.000000 192.836283 229.813333 lcs 6 1 0 0 0 0.766044 -0.642788
node 21 coords 3 300.000000 0.000000 300.000000
node 22 coords 3 300.000000 52.094453 295.442326
node 23 coords 3 300.000000 102.606043 281.907786
node 24 coords 3 300.000000 150.000000 259.807621
node 25 coords 3 300.000000 192.836283 229.813333 lcs 6 1 0 0 0 0.766044 -0.642788
mitc4shell  1 nodes 4   1  6  7  2 crosssect 1
mitc4shell  2 nodes 4   2  7  8  3 crosssect 2
mitc4shell  3 nodes 4   3  8  9  4 crosssect 3
mitc4shell  4 nodes 4   4  9 10  5 crosssect 4
mitc4shell  5 nodes 4   6 11 12  7 crosssect 1
mitc4shell  6 nodes 4   7 12 13  8 crosssect 2
mitc4shell  7 nodes 4   8 13 14  9 crosssect 3
mitc4shell  8 nodes 4   9 14 15 10 crosssect 4
mitc4shell  9 nodes 4  11 16 17 12 crosssect 1
mitc4shell 10 nodes 4  12 17 18 13 crosssect 2
mitc4shell 11 nodes 4  13 18 19 14 crosssect 3
mitc4shell 12 nodes 4  14 19 20 15 crosssect 4
mitc4shell 13 nodes 4  16 21 22 17 crosssect 1
mitc4shell 14 nodes 4  17 22 23 18 crosssect 2
mitc4shell 15 nodes 4  18 23 24 19 crosssect 3
mitc4shell 16 nodes 4  19 24 25 20 crosssect 4
VariableCS 1 thick 3. directorX 0.0 directorY $sin(1/8*40*3.14/180)$ directorZ $cos(1/8*40*3.14/180)$ material 1
VariableCS 2 thick 3. directorX 0.0 directorY $sin(3/8*40*3.14/180)$ directorZ $cos(3/8*40*3.14/180)$ material 1
VariableCS 3 thick 3. directorX 0.0 directorY $sin(5/8*40*3.14/180)$ directorZ $cos(5/8*40*3.14/180)$ material 1
VariableCS 4 thick 3. directorX 0.0 directorY $sin(7/8*40*3.14/180)$ directorZ $cos(7/8*40*3.14/180)$ material 1
IsoLE 1 d 0.208333 E 3.e6 n 0.00 talpha 0.000012
BoundaryCondition 1 loadTimeFunction 1 dofs 2 1 5 values 2 0.0 0.0 set 2
BoundaryCondition 2 loadTimeFunction 1 dofs 2 2 4 values 2 0.0 0.0 set 3
BoundaryCondition 3 loadTimeFunction 1 dofs 1 3 values 1 0.0 set 4
BoundaryCondition 4 loadTimeFunction 1 dofs 1 6 values 1 0.0 set 5
Deadweight 5 loadTimeFunction 1 Components 6 0.0 0.0 -1.0 0.0 0.0 0.0 set 1
ConstantFunction 1 f(t) 1.0
Set 1 elementranges {(1 16)}
Set 2 noderanges {(1 5)}
Set 3 noderanges {1 6 11 16 (21 25)}
Set 4 noderanges {(21 25)}
Set 5 noderanges {(1 6) 10 11 15 16 20 21 25}
#
#
#%BEGIN_CHECK% tolerance 5.e-1
##cylindrical (Scordelis-Lo) shell
##reference solution - node 5 dof 3 -> 3.60 (in global c.s.)
##
#NODE tStep 1 number 5 dof 1 unknown d value 0.00000000e+00
#NODE tStep 1 number 5 dof 2 unknown d value 8.14231098e-01
#NODE tStep 1 number 5 dof 3 unknown d value -3.77798996e+00
#NODE tStep 1 number 5 dof 4 unknown d value -3.05587987e-02
#NODE tStep 1 number 5 dof 5 unknown d value 0.00000000e+00
#NODE tStep 1 number 5 dof 6 unknown d value 0.00000000e+00
##
#ELEMENT tStep 1 number 4 gp 1 keyword 10 component 1  value  1.4833e+03 
#ELEMENT tStep 1 number 4 gp 1 keyword 10 component 2  value -4.0193e+01
#ELEMENT tStep 1 number 4 gp 1 keyword 10 component 3  value -1.5730e+01
#ELEMENT tStep 1 number 4 gp 1 keyword 10 component 4  value -2.5054e+02
#ELEMENT tStep 1 number 4 gp 1 keyword 10 component 5  value 3.6459e+02
#ELEMENT tStep 1 number 4 gp 1 keyword 10 component 6  value 2.5304e+01
##
#%END_CHECK%



