spring05.out
Patch test of torsional spring element in xz plane
LinearStatic nsteps 1 nmodules 1
errorcheck
domain 2dbeam
OutputManager tstep_all dofman_all element_all
ndofman 3 nelem 2 ncrosssect 2 nmat 2 nbc 4 nic 0 nltf 1 nset 4
node 1 coords 3 0.  0.  0.
node 2 coords 3 0.  0.  0.
node 3 coords 3 3.  0.  0.
beam2d 1 nodes 2 2 3 crossSect 1
Spring 2 nodes 2 1 2 crossSect 2 mode 3 orientation 3 0 1 0 k 5.0
SimpleCS 1 area 2.0 Iy 15.0 beamShearCoeff 1.e18 material 1
SimpleCS 2 area 2.0 material 2
IsoLE 1 d 1. E 1.0 n 0.2 tAlpha 1.2e-5
DummyMat 2 
BoundaryCondition 1 loadTimeFunction 1 dofs 3 1 3 5 values 3 0 0 0 set 1
BoundaryCondition 2 loadTimeFunction 1 dofs 2 1 3 values 2 0 0 set 2
BoundaryCondition 3 loadTimeFunction 1 dofs 1 3 values 1 0 set 3
ConstantEdgeLoad 4 loadTimeFunction 1 dofs 3 1 3 5 Components 3 0.0 10.0 0.0 loadType 3 set 4
ConstantFunction 1 f(t) 1.0
Set 1 nodes 1 1
Set 2 nodes 1 2
Set 3 nodes 1 3
Set 4 elementedges 2 1 1
##
## Solution:
## Stiffness matrix of the system (dofs: rotation_at_node_1, rotation_at_node_2)
## K=[2EI/l+k EI/l; EI/l 2EI/l];
## f=[-f*l*l/12; f*l*l/12];
## => r = [-0.56250; 0.65625];
## => spring force = -0.5625*5= -2.8125
##
##
#
#%BEGIN_CHECK% tolerance 1.e-5
## check nodal displacements
#NODE tStep 1 number 2 dof 5 unknown d value -0.56250
#NODE tStep 1 number 3 dof 5 unknown d value  0.65625
## element stresses and strains
#BEAM_ELEMENT tStep 1 number 1 keyword 1 component 1  value 0.000e+00
#BEAM_ELEMENT tStep 1 number 1 keyword 1 component 2  value -9.3750e-01
#BEAM_ELEMENT tStep 1 number 1 keyword 1 component 3  value -4.6875e+00
#BEAM_ELEMENT tStep 1 number 1 keyword 1 component 4  value 0.000e+00
#BEAM_ELEMENT tStep 1 number 1 keyword 1 component 5  value 9.3750e-01
#BEAM_ELEMENT tStep 1 number 1 keyword 1 component 6  value 7.5
#
#REACTION tStep 1 number 1 dof 5 value 2.8125e+00
#REACTION tStep 1 number 2 dof 3 value -1.59375000e+01
#REACTION tStep 1 number 3 dof 3 value -1.40625000e+01
#%END_CHECK%


