test48.out
Homework www sm40 no. 8
#only momentum influence to the displacements is taken into account
#beamShearCoeff is artificially enlarged.
LinearStatic nsteps 1
domain 2dBeam
OutputManager tstep_all dofman_all element_all
ndofman 6 nelem 5 ncrosssect  1 nmat 1 nbc 5 nic 0 nltf 1
node 1 coords 3 0.  0.0 4.7 bc 3 1 1 1
node 2 coords 3 0.0 0.0 2.7 bc 3 0 0 0
node 3 coords 3 0.0 0.0 0.  bc 3 0 0 0
node 4 coords 3 1.0 0.0 0.  bc 3 0 0 0 load 1 4
node 5 coords 3 3.6 0.0 0.  bc 3 0 0 1 load 1 5
node 6 coords 3 3.6 0.0 4.7 bc 3 1 2 1 
Beam2d 1 nodes 2 1 2 mat 1 crossSect 1 boundaryLoads 2 3 1 
Beam2d 2 nodes 2 2 3 mat 1 crossSect 1 boundaryLoads 2 3 1 
Beam2d 3 nodes 2 3 4 mat 1 crossSect 1 
Beam2d 4 nodes 2 4 5 mat 1 crossSect 1 DofsToCondense 1 6
Beam2d 5 nodes 2 5 6 mat 1 crossSect 1 DofsToCondense 1 3
SimpleCS 1 area 1.e3 Iy 0.0026244 beamShearCoeff 1.e18 thick 0.52 
IsoLE 1 d 1. E 25.e6 n 0.2 tAlpha 1.2e-5
BoundaryCondition  1 loadTimeFunction 1 prescribedvalue 0.0 	
BoundaryCondition  2 loadTimeFunction 1 prescribedvalue 0.005
ConstantEdgeLoad   3 loadTimeFunction 1 Components 3 0.0 5.0 0.0 loadType 3 ndofs 3 csType 1
NodalLoad          4 loadTimeFunction 1 Components 3 0.0 10.0 0.0
NodalLoad          5 loadTimeFunction 1 Components 3 7.0 0.0 0.0
ConstantFunction 1 f(t) 1.
#
# exact solution
#
#%BEGIN_CHECK% tolerance 1.e-8
## check reactions 
#REACTION tStep 1 number 1 dof 1 value -2.1742e+01
#REACTION tStep 1 number 1 dof 2 value -8.7045e+00
#REACTION tStep 1 number 1 dof 3 value  5.2300e+01
#REACTION tStep 1 number 5 dof 3 value  0.0
#REACTION tStep 1 number 6 dof 1 value -8.7578e+00
#REACTION tStep 1 number 6 dof 2 value -1.2955e+00
#REACTION tStep 1 number 6 dof 3 value  4.1161e+01
##
## check all nodes
#NODE tStep 1 number 3 dof 3 unknown d value  -1.40503831e-03
#NODE tStep 1 number 3 dof 1 unknown d value   4.61950515e-03
## check element no. 1 force vector
#BEAM_ELEMENT tStep 1 number 1  keyword "forces" component 1  value 8.7045e+00
#BEAM_ELEMENT tStep 1 number 1  keyword "forces" component 2  value -2.1742e+01
#BEAM_ELEMENT tStep 1 number 1  keyword "forces" component 3  value 5.2300e+01
#BEAM_ELEMENT tStep 1 number 1  keyword "forces" component 4  value -8.7045e+00
#BEAM_ELEMENT tStep 1 number 1  keyword "forces" component 5  value 1.1742e+01
#BEAM_ELEMENT tStep 1 number 1  keyword "forces" component 6  value -1.8815e+01
## element 5
#BEAM_ELEMENT tStep 1 number 5  keyword "forces" component 1  value 1.2955e+00
#BEAM_ELEMENT tStep 1 number 5  keyword "forces" component 2  value -8.7578e+00
#BEAM_ELEMENT tStep 1 number 5  keyword "forces" component 3  value 0.0
#BEAM_ELEMENT tStep 1 number 5  keyword "forces" component 4  value -1.2955e+00
#BEAM_ELEMENT tStep 1 number 5  keyword "forces" component 5  value 8.7578e+00
#BEAM_ELEMENT tStep 1 number 5  keyword "forces" component 6  value 4.1161e+01
#%END_CHECK%
