test55.out
Eigen vibration of simply suported beam
#LinearStatic 1 nsteps 1
EigenValueDynamic nroot 4 rtolv 1.e-6
domain 2dBeam
OutputManager tstep_all dofman_all element_all
ndofman 17 nelem 16 ncrosssect  1 nmat 1 nbc 1 nic 0 nltf 1
node 1 coords 3 0.   0.    0.  bc 3 1 1 1
node 2 coords 3 0.   0.    0.25  bc 3 0 0 0
node 3 coords 3 0.   0.    0.50  bc 3 0 0 0
node 4 coords 3 0.0  0.    0.75  bc 3 0 0 0
node 5 coords 3 0.   0.    1.    bc 3 0 0 0
node 6 coords 3 0.   0.    1.25  bc 3 0 0 0
node 7 coords 3 0.   0.    1.50  bc 3 0 0 0
node 8 coords 3 0.0  0.    1.75  bc 3 0 0 0 
node 9 coords 3 0.   0.    2.    bc 3 0 0 0
node 10 coords 3 0.   0.    2.25  bc 3 0 0 0
node 11 coords 3 0.   0.    2.50  bc 3 0 0 0
node 12 coords 3 0.0  0.    2.75  bc 3 0 0 0 
node 13 coords 3 0.   0.    3.    bc 3 0 0 0
node 14 coords 3 0.   0.    3.25  bc 3 0 0 0
node 15 coords 3 0.   0.    3.50  bc 3 0 0 0
node 16 coords 3 0.0  0.    3.75  bc 3 0 0 0 
node 17 coords 3 0.   0.    4.    bc 3 1 1 1 
#
Beam2d 1 nodes 2 1 2 mat 1 crossSect 1 DofsToCondense 1 3 
Beam2d 2 nodes 2 2 3 mat 1 crossSect 1 
Beam2d 3 nodes 2 3 4 mat 1 crossSect 1 
Beam2d 4 nodes 2 4 5 mat 1 crossSect 1 
Beam2d 5 nodes 2 5 6 mat 1 crossSect 1 
Beam2d 6 nodes 2 6 7 mat 1 crossSect 1 
Beam2d 7 nodes 2 7 8 mat 1 crossSect 1 
Beam2d 8 nodes 2 8 9 mat 1 crossSect 1 
Beam2d 9 nodes 2 9 10 mat 1 crossSect 1 
Beam2d 10 nodes 2 10 11 mat 1 crossSect 1 
Beam2d 11 nodes 2 11 12 mat 1 crossSect 1 
Beam2d 12 nodes 2 12 13 mat 1 crossSect 1 
Beam2d 13 nodes 2 13 14 mat 1 crossSect 1 
Beam2d 14 nodes 2 14 15 mat 1 crossSect 1 
Beam2d 15 nodes 2 15 16 mat 1 crossSect 1 
Beam2d 16 nodes 2 16 17 mat 1 crossSect 1 DofsToCondense 1 6
#
SimpleCS 1 area 0.06  Iy 0.00045  beamShearCoeff 1.e60
IsoLE 1 d 25.0 E 25.e6 n 0.2 tAlpha 1.2e-5
BoundaryCondition  1 loadTimeFunction 1 prescribedvalue 0.0
ConstantFunction 1 f(t) 1.
#
#
#%BEGIN_CHECK% tolerance 1.e-3
## check eigen values
#EIGVAL tStep 1 EigNum 1 value 2.85378786e+03
#EIGVAL tStep 1 EigNum 2 value 4.56620244e+04
#%END_CHECK%