test1000.out
Free vibration  of CCT  elements  
EigenValueDynamic nroot 10 rtolv 1.e-5
domain 2dMindlinPlate
OutputManager tstep_all dofman_all element_all
ndofman 432 nelem 720 ncrosssect  1 nmat 1 nbc 1 nic 0 nltf 1
node 1 coords 3 0.000000 0.000000 0.000000 bc 3  1 1 0 
node 2 coords 3 0.000000 10.000000 0.000000 bc 3  1 1 0
node 3 coords 3 0.000000 1.562141 0.000000 bc 3  1 1 0 
node 4 coords 3 1.562141 0.000000 0.000000 bc 3  0 0 0 
node 5 coords 3 0.000000 9.140316 0.000000 bc 3  1 1 0 
node 6 coords 3 1.562142 10.000000 0.000000 bc 3  0 0 0 
node 7 coords 3 0.000000 7.812078 0.000000 bc 3  1 1 0 
node 8 coords 3 0.000000 3.124531 0.000000 bc 3  1 1 0 
node 9 coords 3 1.629056 1.635819 0.000000 bc 3  0 0 0 
node 10 coords 3 3.124531 0.000000 0.000000 bc 3  0 0 0 
node 11 coords 3 0.000000 4.687047 0.000000 bc 3  1 1 0 
node 12 coords 3 0.000000 6.249562 0.000000 bc 3  1 1 0 
node 13 coords 3 1.635389 8.817374 0.000000 bc 3  0 0 0 
node 14 coords 3 3.124535 10.000000 0.000000 bc 3  0 0 0 
node 15 coords 3 1.699780 7.392932 0.000000 bc 3  0 0 0 
node 16 coords 3 1.709016 3.250815 0.000000 bc 3  0 0 0 
node 17 coords 3 2.014165 4.481295 0.000000 bc 3  0 0 0 
node 18 coords 3 3.381329 1.877563 0.000000 bc 3  0 0 0 
node 19 coords 3 4.687047 10.000000 0.000000 bc 3  0 0 0 
node 20 coords 3 4.687047 0.000000 0.000000 bc 3  0 0 0 
# ... 412 like lines cut
CCTPlate 1 nodes 3  9 3 4 crossSect 1  mat 1 
CCTPlate 2 nodes 3  4 3 1 crossSect 1  mat 1 
CCTPlate 3 nodes 3  18 9 10 crossSect 1  mat 1 
CCTPlate 4 nodes 3  10 9 4 crossSect 1  mat 1 
CCTPlate 5 nodes 3  8 3 9 crossSect 1  mat 1 
CCTPlate 6 nodes 3  8 9 16 crossSect 1  mat 1 
CCTPlate 7 nodes 3  26 16 18 crossSect 1  mat 1 
CCTPlate 8 nodes 3  18 16 9 crossSect 1  mat 1 
CCTPlate 9 nodes 3  21 18 20 crossSect 1  mat 1 
CCTPlate 10 nodes 3  20 18 10 crossSect 1  mat 1 
CCTPlate 11 nodes 3  21 20 31 crossSect 1  mat 1 
CCTPlate 12 nodes 3  31 20 22 crossSect 1  mat 1 
CCTPlate 13 nodes 3  29 18 21 crossSect 1  mat 1 
CCTPlate 14 nodes 3  18 29 26 crossSect 1  mat 1 
CCTPlate 15 nodes 3  40 29 31 crossSect 1  mat 1 
CCTPlate 16 nodes 3  31 29 21 crossSect 1  mat 1 
CCTPlate 17 nodes 3  11 8 16 crossSect 1  mat 1 
CCTPlate 18 nodes 3  11 16 17 crossSect 1  mat 1 
CCTPlate 19 nodes 3  17 16 26 crossSect 1  mat 1 
CCTPlate 20 nodes 3  17 26 27 crossSect 1  mat 1 
# ... 700 like lines cut
SimpleCS 1 thick 1.0 
#HMH 1 Ry 4.0
IsoLE 1 d 2500.  E 30.e9  n 0.15 tAlpha 0.000012
BoundaryCondition  1 loadTimeFunction 1 prescribedvalue 0.0
ConstantFunction 1 f(t) 1.0 
#
#
#%BEGIN_CHECK% tolerance 1.e-4
## check eigen values
#EIGVAL tStep 1 EigNum 1 value 9.87097621e-01
#EIGVAL tStep 1 EigNum 2 value 3.94992819e+00
#EIGVAL tStep 1 EigNum 3 value 8.89238648e+00
#EIGVAL tStep 1 EigNum 4 value 1.37791541e+01
#EIGVAL tStep 1 EigNum 5 value 1.58190679e+01
##
## check some nodal values
#%END_CHECK%
