trshell02_test.out
Complex test od tr_shell02 element
#
# First, separate membrane and plate solutions obtained using 
# reference elements (elements 1,2 (membrane) and (11,12) plate)
#
# Then shell elements are positioned in yz plane and loaded by combination of
# membrane and plate loading (elements 31,32)
#
# Finally, the same structure positioned arbitrarily in space (elements 41,42)
# Rectangular domain 3x2 originally located in global xy plane
# The rotated coordinate system initially same as global,
# then rotated first around x axis about 30 degrees,
# then rotated around  y axis about 30 degrees.
# This yields rotation matrix R= 
#
#   0.86603   0.25000   0.43301
#   0.00000   0.86603  -0.50000
#  -0.50000   0.43301   0.75000
# Nodal positions:
# n1 (0,0,0) -> (0,0,0)
# n2 (3,0,0) -> (2.59808   0.00000  -1.50000)
# n3 (3,2,0) -> (3.09808   1.73205  -0.63397)
# n4 (0,2,0) -> (0.50000   1.73205   0.86603)
#
# Author: bp
#
LinearStatic nsteps 1 nmodules 1
errorcheck
domain 3dshell
OutputManager tstep_all dofman_all element_all
ndofman 16 nelem 8 ncrosssect 1 nmat 1 nbc 5 nic 0 nltf 1 nset 6
# membrane part
node 1 coords 3  0.0  0.0  0.0
node 2 coords 3  3.0  0.0  0.0
node 3 coords 3  3.0  2.0  0.0
node 4 coords 3  0.0  2.0  0.0
#  plate part
node 11 coords 3  0.0  0.0  0.0
node 12 coords 3  3.0  0.0  0.0
node 13 coords 3  3.0  2.0  0.0
node 14 coords 3  0.0  2.0  0.0
# shell in yz plane
node 21 coords 3  0.0  0.0  0.0
node 22 coords 3  0.0  3.0  0.0
node 23 coords 3  0.0  3.0  2.0
node 24 coords 3  0.0  0.0  2.0
# shell with arbitrary position in space (see before)
node 31 coords 3  0.0  0.0  0.0
node 32 coords 3  2.59808   0.00000  -1.50000
node 33 coords 3  3.09808   1.73205  -0.63397
node 34 coords 3  0.50000   1.73205   0.86603
##
# simple membrane
trplanestressrotallman 1 nodes 3 1 2 3
trplanestressrotallman 2 nodes 3 1 3 4
# simple plate
DKTPlate 11 nodes 3 11 12 13 nip 4
DKTPlate 12 nodes 3 11 13 14 nip 4
# shell in yz plane
tr_shell02 21 nodes 3 21 22 23 nip 4
tr_shell02 22 nodes 3 21 23 24 nip 4
#general position
tr_shell02 31 nodes 3 31 32 33 nip 4
tr_shell02 32 nodes 3 31 33 34 nip 4
#
SimpleCS 1 thick 1.0 material 1 set 1
IsoLE 1 d 2500.  E 15.0  n 0.25 tAlpha 0.000012
BoundaryCondition  1 loadTimeFunction 1 dofs 6 1 2 3 4 5 6 values 6 0 0 0 0 0 0 set 2
NodalLoad 2 loadTimeFunction 1 dofs 6 1 2 3 4 5 6 Components 6 0.0 1.0 0.0 0.0 0.0 1.0 set 5
# pure membrane load -> force in x dir
NodalLoad 3 loadTimeFunction 1 dofs 3 1 2 6 Components 3 1.0 0.0 0.0 set 3
# pure plate load -> moment m_y
NodalLoad 4 loadTimeFunction 1 dofs 3 3 4 5 Components 3 0.0 0.0 1.0  set 4
NodalLoad 5 loadTimeFunction 1 dofs 6 1 2 3 4 5 6 Components 6 0.86603   0.00000  -0.50000 0.25000   0.86603   0.43301 set 6
ConstantFunction 1 f(t) 1.0
Set 1 elements 8 1 2 11 12 21 22 31 32
#
Set 2 nodes 8 1 4 11 14 21 24 31 34
Set 3 nodes 2 2 3
Set 4 nodes 2 12 13
Set 5 nodes 2 22 23
Set 6 nodes 2 32 33

#%BEGIN_CHECK% tolerance 1.e-4
## check nodes nodes
##membrane
#NODE tStep 1 number 2 dof 1 unknown d value  2.15860171e-01
#NODE tStep 1 number 2 dof 2 unknown d value  5.00889569e-02
#NODE tStep 1 number 2 dof 6 unknown d value  7.17537795e-02
#NODE tStep 1 number 22 dof 2 unknown d value  2.15860171e-01
#NODE tStep 1 number 22 dof 3 unknown d value  5.00889569e-02
#NODE tStep 1 number 22 dof 4 unknown d value  7.17537795e-02
##plate
#NODE tStep 1 number 12 dof 3 unknown d value  -3.51790585e+00
#NODE tStep 1 number 12 dof 4 unknown d value  -1.85469239e-01
#NODE tStep 1 number 12 dof 5 unknown d value   2.38212187e+00
#NODE tStep 1 number 22 dof 1 unknown d value  -3.51790585e+00
#NODE tStep 1 number 22 dof 5 unknown d value  -1.85469239e-01
#NODE tStep 1 number 22 dof 6 unknown d value   2.38212187e+00
## displacements of node 32 obtained by transforming those from nodes 2 and 12
#NODE tStep 1 number 32 dof 1 unknown d value  -1.32383845e+00
#NODE tStep 1 number 32 dof 2 unknown d value  1.80233765e+00
#NODE tStep 1 number 32 dof 3 unknown d value  -2.72467525e+00
#NODE tStep 1 number 32 dof 4 unknown d value  4.65981301e-01
#NODE tStep 1 number 32 dof 5 unknown d value  2.02710609e+00
#NODE tStep 1 number 32 dof 6 unknown d value  1.17803840e+00
## compare internal (selected) strains & forces
#ELEMENT tStep 1 number 1 gp 1 keyword 4 component 1  value 6.3981e-02
#ELEMENT tStep 1 number 1 gp 1 keyword 4 component 2  value -1.7254e-02
#ELEMENT tStep 1 number 1 gp 1 keyword 4 component 6  value -5.0361e-03
#ELEMENT tStep 1 number 1 gp 1 keyword 1 component 1  value 9.5468e-01
#ELEMENT tStep 1 number 1 gp 1 keyword 1 component 2  value -2.0144e-02
#ELEMENT tStep 1 number 1 gp 1 keyword 1 component 6  value -3.0217e-02
##
#ELEMENT tStep 1 number 21 gp 1 keyword 104 component 2  value 6.3981e-02
#ELEMENT tStep 1 number 21 gp 1 keyword 104 component 3  value -1.7254e-02
#ELEMENT tStep 1 number 21 gp 1 keyword 104 component 4  value -5.03609698e-03
#ELEMENT tStep 1 number 21 gp 1 keyword 10 component 2  value 9.5468e-01
#ELEMENT tStep 1 number 21 gp 1 keyword 10 component 3  value -2.0144e-02
#ELEMENT tStep 1 number 21 gp 1 keyword 10 component 4  value -3.0217e-02
## plate
#ELEMENT tStep 1 number 11 gp 1 keyword 4 component 4  value 7.5368e-01
#ELEMENT tStep 1 number 11 gp 1 keyword 4 component 5  value -1.5347e-01
#ELEMENT tStep 1 number 11 gp 1 keyword 4 component 6  value 3.9070e-02
#ELEMENT tStep 1 number 11 gp 1 keyword 1 component 4  value 9.5375e-01
#ELEMENT tStep 1 number 11 gp 1 keyword 1 component 5  value 4.6604e-02
#ELEMENT tStep 1 number 11 gp 1 keyword 1 component 6  value 1.9535e-02
##
#ELEMENT tStep 1 number 21 gp 1 keyword 11 component 2  value 7.5368e-01
#ELEMENT tStep 1 number 21 gp 1 keyword 11 component 3  value -1.5347e-01
#ELEMENT tStep 1 number 21 gp 1 keyword 11 component 4  value 3.90704555e-02
#ELEMENT tStep 1 number 21 gp 1 keyword 9 component 2  value 9.5375e-01
#ELEMENT tStep 1 number 21 gp 1 keyword 9 component 3  value 4.6604e-02
#ELEMENT tStep 1 number 21 gp 1 keyword 9 component 4  value 1.9535e-02
#%END_CHECK%
