trshell11_1.out
Cantilever beam, comparing two models (integral cross section and layared cross section)
#
NonLinearStatic nmodules 1 nmsteps 1 nsteps 2 profileopt 1
nsteps 2 controllmode 1 rtolf 1e-3 rtold 1e-3 MaxIter 2000 refloadmode 1
#
#vtkxml tstep_all domain_all primvars 1 1 vars 3 9 10 104 stype 1
errorcheck
#
domain 3dShell
OutputManager tstep_all dofman_all element_all
#ndofman 4 nelem 2 ncrosssect 2 nmat 1 nbc 2 nic 0 nltf 2 nset 4 
ndofman 8 nelem 4 ncrosssect 2 nmat 1 nbc 2 nic 0 nltf 2 nset 4 
#
node      1 coords 3  0.  0.0	0. 
node      2 coords 3  0.  0.5	0. 
node      3 coords 3  1.  0.5	0. 
node      4 coords 3  1.  0.0	0.
#
node      11 coords 3  0.  0.0	0. 
node      12 coords 3  0.  0.5	0. 
node      13 coords 3  1.  0.5	0. 
node      14 coords 3  1.  0.0	0.
#
tr_shell11 1 nodes 3 1 2 3 
tr_shell11 2 nodes 3 1 3 4
#
tr_shell11 11 nodes 3 11 12 13 
tr_shell11 12 nodes 3 11 13 14
#
#CROSS SECTIONS
SimpleCS 1 thick 0.02 material 1 drillType 1 relDrillStiffness 0.01 drillstiffness 10.e9 set 1
LayeredCS 2 nlayers 2 layermaterials 2 1 1 thicks 2  0.01 0.01 widths 2 1 1 nintegrationpoints 2 drillType 1 relDrillStiffness 0.01 set 2 drillstiffness 10.e9
#
#MATERIALS
IsoLE 1 d 1. E 1e9 n 0.2 tAlpha 0.
#ConcreteDPM 1 d 0. E 30.e9 n 0.2 talpha 0. fc 30.e6 ft 3.e6 ecc 0.525 Ahard 8.e-2 Bhard 3.e-3 Chard 2. Dhard 1.e-6 Asoft 35. dilation -0.85 yieldtol 1.e-8 newtoniter 300 wf 300.e-6
#
#BOUNDARY CONDITIONS
BoundaryCondition 1 loadTimeFunction 1 dofs 6 1 2 3 4 5 6 values 6 0. 0. 0. 0. 0. 0. set 3
#BoundaryCondition 2 loadTimeFunction 2 dofs 2 4 5 values 2 0 0.05  set 4
NodalLoad 2 loadtimeFunction 2 dofs 2 1 5 Components 2 1.0 1.0 set 4
#
#FUNCTIONS
ConstantFunction 1 f(t) 1.
PiecewiseLinFunction 2 nPoints 3 t 3 -1. 0. 9. f(t) 3 0. 0. 1.
#
#SETS
Set 1 elements 2 1 2
Set 2 elements 2 11 12
#Set 2
Set 3 nodes 4 1 2 11 12
Set 4 nodes 4 3 4 13 14 
#
#
#%BEGIN_CHECK% tolerance 1.e-8
#NODE tStep 2 number 3 dof 1 unknown d value  2.11247616e-08 tolerance 1.e-10 
#NODE tStep 2 number 3 dof 2 unknown d value -1.07008715e-09 tolerance 1.e-10
#NODE tStep 2 number 3 dof 3 unknown d value -3.29602674e-04 tolerance 1.e-10
#NODE tStep 2 number 3 dof 4 unknown d value  5.92956839e-07 tolerance 1.e-10 
#NODE tStep 2 number 3 dof 5 unknown d value  6.59199446e-04 tolerance 1.e-10
#
#NODE tStep 2 number 4 dof 1 unknown d value  2.43231379e-08 tolerance 1.e-10 
#NODE tStep 2 number 4 dof 2 unknown d value  5.03243457e-09 tolerance 1.e-10
#NODE tStep 2 number 4 dof 3 unknown d value -3.19019099e-04 tolerance 1.e-10
#NODE tStep 2 number 4 dof 4 unknown d value -4.38462023e-05 tolerance 1.e-10 
#NODE tStep 2 number 4 dof 5 unknown d value  6.38576218e-04 tolerance 1.e-10
#
#ELEMENT tStep 2 number 1 gp 1 keyword 104 component 1  value   2.0989e-08 tolerance 1.e-10
#ELEMENT tStep 2 number 1 gp 1 keyword 104 component 4  value  -9.8826e-08 tolerance 1.e-10
#ELEMENT tStep 2 number 1 gp 1 keyword 11 component 1  value -6.5920e-04 tolerance 1.e-7
#ELEMENT tStep 2 number 1 gp 1 keyword 11 component 6  value  5.9296e-07 tolerance 1.e-10
#ELEMENT tStep 2 number 1 gp 1 keyword 10 component 1  value  8.7454e-03 tolerance 1.e-6
#ELEMENT tStep 2 number 1 gp 1 keyword 10 component 2  value  1.7491e-03 tolerance 1.e-6
#ELEMENT tStep 2 number 1 gp 1 keyword 10 component 4  value  -6.8629e-01 tolerance 1.e-4
#ELEMENT tStep 2 number 1 gp 1 keyword 10 component 5  value  -3.6364e-01 tolerance 1.e-4
#ELEMENT tStep 2 number 1 gp 1 keyword 9 component 1  value  -4.5778e-01 tolerance 1.e-4
#ELEMENT tStep 2 number 1 gp 1 keyword 9 component 2  value  -9.1555e-02 tolerance 1.e-5
## check reactions 
##REACTION tStep 2 number 1 dof 1 value  -9.0824e-02 tolerance 1.e-5
##REACTION tStep 2 number 1 dof 2 value  -3.4883e-02 tolerance 1.e-5
##REACTION tStep 2 number 1 dof 3 value  2.5224e-01 tolerance 1.e-4
##REACTION tStep 2 number 1 dof 4 value 1.2232e-01 tolerance 1.e-4
##REACTION tStep 2 number 1 dof 5 value  -1.3458e-01 tolerance 1.e-4
##REACTION tStep 2 number 2 dof 1 value -1.3140e-01 tolerance 1.e-5
##REACTION tStep 2 number 2 dof 2 value 3.4883e-02 tolerance 1.e-5
##REACTION tStep 2 number 2 dof 3 value -2.5224e-01 tolerance 1.e-4
##REACTION tStep 2 number 2 dof 4 value  3.7963e-03 tolerance 1.e-4
##REACTION tStep 2 number 2 dof 5 value  -8.7639e-02 tolerance 1.e-4
###layered model
#NODE tStep 2 number 13 dof 1 unknown d value  2.11247616e-08 tolerance 1.e-10 
#NODE tStep 2 number 13 dof 2 unknown d value -1.07008715e-09 tolerance 1.e-10
#NODE tStep 2 number 13 dof 3 unknown d value -3.29602674e-04 tolerance 1.e-10
#NODE tStep 2 number 13 dof 4 unknown d value  5.92956839e-07 tolerance 1.e-10 
#NODE tStep 2 number 13 dof 5 unknown d value  6.59199446e-04 tolerance 1.e-10
#
#NODE tStep 2 number 14 dof 1 unknown d value  2.43231379e-08 tolerance 1.e-10 
#NODE tStep 2 number 14 dof 2 unknown d value  5.03243457e-09 tolerance 1.e-10
#NODE tStep 2 number 14 dof 3 unknown d value -3.19019099e-04 tolerance 1.e-10
#NODE tStep 2 number 14 dof 4 unknown d value -4.38462023e-05 tolerance 1.e-10 
#NODE tStep 2 number 14 dof 5 unknown d value  6.38576218e-04 tolerance 1.e-10
#
#ELEMENT tStep 2 number 11 gp 1 keyword 104 component 1  value   2.0989e-08 tolerance 1.e-10
#ELEMENT tStep 2 number 11 gp 1 keyword 104 component 4  value  -9.8826e-08 tolerance 1.e-10
#ELEMENT tStep 2 number 11 gp 1 keyword 11 component 1  value -6.5920e-04 tolerance 1.e-7
#ELEMENT tStep 2 number 11 gp 1 keyword 11 component 6  value  5.9296e-07 tolerance 1.e-10
#ELEMENT tStep 2 number 11 gp 1 keyword 10 component 1  value  8.7454e-03 tolerance 1.e-6
#ELEMENT tStep 2 number 11 gp 1 keyword 10 component 2  value  1.7491e-03 tolerance 1.e-6
#ELEMENT tStep 2 number 11 gp 1 keyword 10 component 4  value  -6.8629e-01 tolerance 1.e-4
#ELEMENT tStep 2 number 11 gp 1 keyword 10 component 5  value  -3.6364e-01 tolerance 1.e-4
#ELEMENT tStep 2 number 11 gp 1 keyword 9 component 1  value  -4.5778e-01 tolerance 1.e-4
#ELEMENT tStep 2 number 11 gp 1 keyword 9 component 2  value  -9.1555e-02 tolerance 1.e-5
#%END_CHECK%
