truss2d_01.out
bar with linear variation of area; loaded in tension
#only momentum influence to the displacements is taken into account
#beamShearCoeff is artificially enlarged.
LinearStatic nsteps 1 nmodules 1
errorcheck
domain 2dtruss
OutputManager tstep_all dofman_all element_all
ndofman 6 nelem 5 ncrosssect 1 nmat 1 nbc 3 nic 0 nltf 1 nset 3
node 1 coords 3 0.  0.  0.
node 2 coords 3 1.  0.  0.
node 3 coords 3 2.  0.  0.
node 4 coords 3 3.  0.  0.
node 5 coords 3 4.  0.  0.
node 6 coords 3 5.  0.  0.
truss2d 1 nodes 2 1 2
truss2d 2 nodes 2 2 3
truss2d 3 nodes 2 3 4
truss2d 4 nodes 2 4 5
truss2d 5 nodes 2 5 6
VariableCS 1 area $t=0.6+x1*(0.1-0.6)/5.;t*1.0$ material 1 set 1
IsoLE 1 d 1. E 30. n 0.2 tAlpha 1.2e-5
BoundaryCondition  1 loadTimeFunction 1 dofs 1 3 values 1 0.0 set 1
BoundaryCondition  2 loadTimeFunction 1 dofs 1 1 values 1 0.0 set 3
NodalLoad 3 loadTimeFunction 1 dofs 2 1 3 Components 2 -10.0 0.0 set 2
PeakFunction 1 t 1.0 f(t) 1.
Set 1 elementranges {(1 5)}
Set 2 nodes 1 6
Set 3 nodes 1 1
#
# exact solution
#
#%BEGIN_CHECK% tolerance 1.e-3
## check reactions 
#REACTION tStep 1 number 1 dof 1 value 10.0 tolerance 1.e-4
##
## check all nodes
#NODE tStep 1 number 6 dof 1 unknown d value -5.85473785
#NODE tStep 1 number 4 dof 1 unknown d value -2.29918230
#NODE tStep 1 number 2 dof 1 unknown d value -0.60606061
## check element no. 1 force vector
##ELEMENT tStep 1 number 1 gp 1 keyword 1 component 1  value -18.181818 tolerance 1.e-4
##ELEMENT tStep 1 number 5 gp 1 keyword 1 component 5  value -66.666666 tolerance 1.e-4
#%END_CHECK%



