xFemCrackValBranchCZ.out
XFEM simulation: A crack with branch functions and elastic cohesive zone. Written by Erik Svenning, Chalmers University of Technology.
XFEMStatic nsteps 3 deltat 1.0 controlmode 1 rtolv 1.0e-6 MaxIter 20 minIter 2 stiffmode 0 nmodules 0
#vtkxml tstep_all domain_all primvars 1 1 cellvars 1 1
domain 2dPlaneStress
OutputManager tstep_all dofman_all element_all
ndofman 16 nelem 9 ncrosssect 1 nmat 2 nbc 2 nic 0 nltf 1 nxfemman 1
node 1     coords 2  0        0        bc 2 1 1
node 2     coords 2  2        0        bc 2 0 1
node 3     coords 2  2        2        bc 2 0 2
node 4     coords 2  0        2        bc 2 0 2
node 5     coords 2  0.666667 0        bc 2 0 1
node 6     coords 2  1.33333  0        bc 2 0 1
node 7     coords 2  2        0.666667 bc 2 0 0
node 8     coords 2  2        1.33333  bc 2 0 0
node 9     coords 2  1.33333  2        bc 2 0 2
node 10    coords 2  0.666667 2        bc 2 0 2
node 11    coords 2  0        1.33333  bc 2 0 0
node 12    coords 2  0        0.666667 bc 2 0 0
node 13    coords 2  1.33333  0.666667 bc 2 0 0
node 14    coords 2  1.33333  1.33333  bc 2 0 0
node 15    coords 2  0.666667  0.66668 bc 2 0 0
node 16    coords 2  0.666667  1.33335 bc 2 0 0
PlaneStress2DXfem 1    nodes 4   2   6   13  7   mat 1 crosssect 1 nip 9 nlgeo 0 czmaterial 2
PlaneStress2DXfem 2    nodes 4   7   13  14  8   mat 1 crosssect 1 nip 9 nlgeo 0 czmaterial 2
PlaneStress2DXfem 3    nodes 4   8   14  9   3   mat 1 crosssect 1 nip 9 nlgeo 0 czmaterial 2
PlaneStress2DXfem 4    nodes 4   6   5   15  13  mat 1 crosssect 1 nip 9 nlgeo 0 czmaterial 2
PlaneStress2DXfem 5    nodes 4   13  15  16  14  mat 1 crosssect 1 nip 9 nlgeo 0 czmaterial 2
PlaneStress2DXfem 6    nodes 4   14  16  10  9   mat 1 crosssect 1 nip 9 nlgeo 0 czmaterial 2
PlaneStress2DXfem 7    nodes 4   5   1   12  15  mat 1 crosssect 1 nip 9 nlgeo 0 czmaterial 2
PlaneStress2DXfem 8    nodes 4   15  12  11  16  mat 1 crosssect 1 nip 9 nlgeo 0 czmaterial 2
PlaneStress2DXfem 9    nodes 4   16  11  4   10  mat 1 crosssect 1 nip 9 nlgeo 0 czmaterial 2
SimpleCS 1 thick 1.0e-3 material 1
#
#Linear elasticity
IsoLE 1 d 0.0 E 1.0e4 n 0.0 tAlpha 0.0
# Elastic cohesive zone
IntMatBilinearCZElastic 2 kn 1.0e7 ks 1.0e7 knc 1.0e7 g1c 1.0e6 sigfn 1.0e6
BoundaryCondition 1 loadTimeFunction 1 prescribedvalue 0.0
BoundaryCondition 2 loadTimeFunction 1 prescribedvalue 0.2
#
ConstantFunction 1 f(t) 1.0
#XfemManager 1 numberofenrichmentitems 1 numberofgppertri 3 debugvtk 1 vtkexport 1 exportfields 1 4
XfemManager 1 numberofenrichmentitems 1 numberofgppertri 3 debugvtk 0
crack 1 enrichmentfront 1 propagationlaw 1
DiscontinuousFunction 1
polygoncrack 1 points 6 -1.0 1.0 0.333333333333333 1.0 0.56666666666667 1.0
EnrFrontLinearBranchFuncRadius radius 0.5
EnrFrontLinearBranchFuncRadius radius 0.5
PropagationLawCrackPrescribedDir 1 angle 0.0 incrementLength 0.55
#%BEGIN_CHECK% tolerance 1.e-8
## Node displacements
## Node 13
#NODE tStep 2 number 13 dof 1 unknown d value 4.00962832e-05
#NODE tStep 2 number 13 dof 2 unknown d value 6.66009781e-02
#NODE tStep 2 number 13 dof 23 unknown d value 7.86994185e-06
#NODE tStep 2 number 13 dof 24 unknown d value -2.80317997e-04
#NODE tStep 2 number 13 dof 25 unknown d value 1.97165709e-04
#NODE tStep 2 number 13 dof 26 unknown d value 2.73011561e-03
#NODE tStep 2 number 13 dof 27 unknown d value -4.81489634e-04
#NODE tStep 2 number 13 dof 28 unknown d value -5.32648058e-05
#NODE tStep 2 number 13 dof 29 unknown d value -2.84282149e-04
#NODE tStep 2 number 13 dof 30 unknown d value 3.96774147e-03
## Node 15
#NODE tStep 2 number 15 dof 1 unknown d value 1.21478835e-05
#NODE tStep 2 number 15 dof 2 unknown d value 6.65787459e-02
#NODE tStep 2 number 15 dof 23 unknown d value 3.67651515e-05
#NODE tStep 2 number 15 dof 24 unknown d value 7.19808291e-05
#%END_CHECK%

