xfemCohesiveZone1.out
XFEM simulation: A single element with bilinear cohesive zone, loaded in pure shear. Written by Erik Svenning, Chalmers University of Technology.
StaticStructural nsteps 5 deltat 1.0 rtolf 1.0e-6 MaxIter 25 minIter 2 nmodules 1 manrmsteps 1
errorcheck
#vtkxml tstep_all domain_all primvars 1 1 cellvars 1 1
domain 2dPlaneStress
OutputManager tstep_all dofman_all element_all
ndofman 4 nelem 1 ncrosssect 1 nmat 2 nbc 2 nic 0 nltf 1 nxfemman 1 nset 3
node 1     coords 2  0        0
node 2     coords 2  1        0
node 3     coords 2  1        1
node 4     coords 2  0        1
PlaneStress2DXfem 1    nodes 4   1   2   3  4 nip 9 nlgeo 0 czmaterial 2
SimpleCS 1 thick 1.0 material 1 set 1
#
#Linear elasticity
IsoLE 1 d 0.0 E 1.0e5 n 0.0 tAlpha 0.0
#Bilinear cohesive zone material
intmatbilinearcz 2 kn 1.0e6 g1c 1.0e1 g2c 1.5e0 mu 0.0 gamma 0.5 sigf 1.e2
BoundaryCondition 1 loadTimeFunction 1 dofs 2 1 2 values 2 0 0 set 2
BoundaryCondition 2 loadTimeFunction 1 dofs 2 1 2 values 2 0.8e-1 0 set 3
#
PiecewiseLinFunction 1 t 2 1.0 6.0 f(t) 2 0.0 1.0
Set 1 elementranges {1}
Set 2 nodes 2 1 2
Set 3 nodes 2 3 4
#
XfemManager 1 numberofenrichmentitems 1 debugvtk 0
crack 1 
#DiscontinuousFunction 1
HeavisideFunction 1
#polygoncrack 1 points 6 -0.1 0.3 0.5 0.3 1.1 0.3
PolygonLine 1 points 6 -0.5 0.3 -0.2 0.3 1.1 0.3
#
#
#%BEGIN_CHECK% tolerance 1.e-4
## step 2
#REACTION tStep 2 number 3 dof 1 value 1.87813253e+01
#REACTION tStep 2 number 4 dof 1 value 1.87813439e+01
## step 3
#REACTION tStep 3 number 3 dof 1 value 1.19669860e+01
#REACTION tStep 3 number 4 dof 1 value 1.19669860e+01
## step 4
#REACTION tStep 4 number 3 dof 1 value 5.14949702e+00
#REACTION tStep 4 number 4 dof 1 value 5.14949702e+00
## step 5
#REACTION tStep 5 number 3 dof 1 value 0.0e+00
#REACTION tStep 5 number 4 dof 1 value 0.0e+00
#%END_CHECK%
