brazil_2d_nl.oofem.out
2D brazilian splitting test
#linearstatic nsteps 1 renumber 1
#
#nonlinearstatic nsteps 100 renumber 1 contextOutputStep 1 stiffMode 2 controlmode 0 psi 0.0 steplength 0.0001 initialsteplength 0.0002 rtolf 1e-4 MaxIter 200 reqIterations 30 manrmsteps 10 hpcmode 1 hpc 2 3 1
#
nonlinearstatic nsteps 1 nmsteps 5 nmodules 1
#
#metastep 1
nsteps 4 stiffMode 2 controlmode 0 psi 0.0 steplength 0.0001 initialsteplength 0.0002 rtolf 1e-4 MaxIter 200 reqIterations 30 manrmsteps 10 hpcmode 1 hpc 2 3 1 keepll
#metastep 2
nsteps 3 stiffMode 2 controlmode 0 psi 0.0 steplength 0.00002 rtolf 1e-4 MaxIter 200 reqIterations 30 manrmsteps 10 hpcmode 1 hpc 2 3 1 keepll
#metastep 3
nsteps 4 stiffMode 2 controlmode 0 psi 0.0 steplength 0.00001 rtolf 1e-4 MaxIter 200 reqIterations 30 manrmsteps 10 hpcmode 1 hpc 2 3 1 keepll
#metastep 4
nsteps 9 stiffMode 2 controlmode 0 psi 0.0 steplength 0.0001 rtolf 1e-4 MaxIter 200 reqIterations 30 manrmsteps 10 hpcmode 1 hpc 2 3 1 keepll
#metastep 5
nsteps 10 stiffMode 2 controlmode 0 psi 0.0 steplength 0.001 rtolf 1e-4 MaxIter 200 reqIterations 30 manrmsteps 10 hpcmode 1 hpc 2 3 1 keepll
#
errorcheck "brazil_2d_nl.oofem.in"
domain PlaneStrain
OutputManager tstep_all dofman_all element_all
ndofman 427 nelem 386 ncrosssect 2 nmat 2 nbc 3 nltf 1 nic 0 nset 5
node 1 coords 3 0.000000e+00 0.000000e+00 0.000000e+00
node 2 coords 3 4.000000e+01 0.000000e+00 0.000000e+00
node 3 coords 3 5.000000e+00 0.000000e+00 0.000000e+00
node 4 coords 3 5.000000e+00 3.968627e+01 0.000000e+00
node 5 coords 3 0.000000e+00 3.968627e+01 0.000000e+00
node 6 coords 3 5.000000e+00 4.268627e+01 0.000000e+00
node 7 coords 3 0.000000e+00 4.268627e+01 0.000000e+00
node 8 coords 3 1.000000e+00 4.268627e+01 0.000000e+00
node 9 coords 3 1.000000e+00 0.000000e+00 0.000000e+00
node 10 coords 3 2.000000e+00 0.000000e+00 0.000000e+00
node 11 coords 3 3.000000e+00 0.000000e+00 0.000000e+00
node 12 coords 3 4.000000e+00 0.000000e+00 0.000000e+00
node 13 coords 3 6.048352e+00 0.000000e+00 0.000000e+00
node 14 coords 3 7.242394e+00 0.000000e+00 0.000000e+00
node 15 coords 3 8.919308e+00 0.000000e+00 0.000000e+00
node 16 coords 3 1.112819e+01 0.000000e+00 0.000000e+00
node 17 coords 3 1.351373e+01 0.000000e+00 0.000000e+00
node 18 coords 3 1.622269e+01 0.000000e+00 0.000000e+00
node 19 coords 3 2.007507e+01 0.000000e+00 0.000000e+00
node 20 coords 3 2.481590e+01 0.000000e+00 0.000000e+00
# ... 407 like lines cut
TrPlaneStrain 1 nodes 3 160 161 221 mat 1
TrPlaneStrain 2 nodes 3 387 388 412 mat 1
Quad1PlaneStrain 3 nodes 4 1 9 87 79 mat 1
Quad1PlaneStrain 4 nodes 4 9 10 88 87 mat 1
Quad1PlaneStrain 5 nodes 4 10 11 89 88 mat 1
Quad1PlaneStrain 6 nodes 4 11 12 90 89 mat 1
Quad1PlaneStrain 7 nodes 4 12 3 91 90 mat 1
Quad1PlaneStrain 8 nodes 4 3 13 92 91 mat 1
Quad1PlaneStrain 9 nodes 4 13 14 93 92 mat 1
Quad1PlaneStrain 10 nodes 4 14 15 94 93 mat 1
Quad1PlaneStrain 11 nodes 4 15 16 95 94 mat 1
Quad1PlaneStrain 12 nodes 4 16 17 96 95 mat 1
Quad1PlaneStrain 13 nodes 4 17 18 97 96 mat 1
Quad1PlaneStrain 14 nodes 4 18 19 98 97 mat 1
Quad1PlaneStrain 15 nodes 4 19 20 99 98 mat 1
Quad1PlaneStrain 16 nodes 4 20 21 100 99 mat 1
Quad1PlaneStrain 17 nodes 4 21 22 101 100 mat 1
Quad1PlaneStrain 18 nodes 4 22 2 23 101 mat 1
Quad1PlaneStrain 19 nodes 4 23 24 102 101 mat 1
Quad1PlaneStrain 20 nodes 4 24 25 103 102 mat 1
Quad1PlaneStrain 21 nodes 4 25 26 104 103 mat 1
Quad1PlaneStrain 22 nodes 4 26 27 105 104 mat 1
# ... 355 like lines cut
Quad1PlaneStrain 378 nodes 4 8 7 85 424 mat 2 boundaryLoads 2 3 1
Quad1PlaneStrain 379 nodes 4 85 86 425 424 mat 2
Quad1PlaneStrain 380 nodes 4 86 5 41 425 mat 2
Quad1PlaneStrain 381 nodes 4 41 40 426 425 mat 2
Quad1PlaneStrain 382 nodes 4 40 39 427 426 mat 2
Quad1PlaneStrain 383 nodes 4 39 38 420 427 mat 2
Quad1PlaneStrain 384 nodes 4 420 421 422 427 mat 2
Quad1PlaneStrain 385 nodes 4 422 423 426 427 mat 2
Quad1PlaneStrain 386 nodes 4 423 424 425 426 mat 2
Set 1 elementranges {(1 371)}
Set 2 elementranges {(372 386)}
Set 3 noderanges {1 5 7 (42 79) 85 86}
Set 4 noderanges {(1 3) (9 22)}
Set 5 elementboundaries 2 378 1
SimpleCS 1 thick 1.0 set 1
SimpleCS 2 thick 1.0 set 2
idmnl1 1 d 1.0 E 37.7e3 n 0.2 talpha 0.0 e0 6.75e-5 ef 3.0e-4 R 5.0 equivstraintype 1 regionMap 2 0 1
IsoLE  2 d 1.0 E 300.e3 n 0.2 talpha 0.0
##idmnl1 1 d 1.0 E 30.e3 n 0.18 talpha 0.0 e0 0.00011666666667 ef 0.0059953333333 R 5.0 equivstraintype 1 regionMap 2 0 1
##IsoLE  2 d 1.0 E 210.e3 n 0.3 talpha 0.0
BoundaryCondition 1 loadTimeFunction 1 dofs 1 1 values 1 0.0 set 3
BoundaryCondition 2 loadTimeFunction 1 dofs 1 2 values 1 0.0 set 4
ConstantEdgeLoad 3 loadTimeFunction 1 components 2 0 -1.0 loadType 3 ndofs 2
ConstantFunction 1 f(t) 1.0

#%BEGIN_CHECK% tolerance 1.e-5
#LOADLEVEL tStep 30 value 110.857521
#NODE  tStep 30 number 7 dof 2 unknown d value -1.08831150e-02
#NODE  tStep 30 number 3 dof 1 unknown d value  1.33260159e-03
#%END_CHECK%
