lb02.out
Test of PlaneStress2d elements -> pure compression in x direction
NonLinearStatic nsteps 2 controllmode 1 rtolv 1.e-3 refloadmode 0 lstype 3 smtype 7 lbflag 1
domain 2dPlaneStress
OutputManager tstep_all dofman_all element_all
ndofman 45 nelem 32 ncrosssect  1 nmat 1 nbc 2 nic 0 nltf 1
#
node 1 coords 3  0.0   0.0   0.0  bc 2 1 0 
node 2 coords 3  0.1   0.0   0.0  bc 2 0 0 
node 3 coords 3  0.2   0.0   0.0  bc 2 0 0 
node 4 coords 3  0.3   0.0   0.0  bc 2 0 0 
node 5 coords 3  0.4   0.0   0.0  bc 2 0 0 
node 6 coords 3  0.5   0.0   0.0  bc 2 0 0 
node 7 coords 3  0.6   0.0   0.0  bc 2 0 0 
node 8 coords 3  0.7   0.0   0.0  bc 2 0 0 
node 9 coords 3  0.8   0.0   0.0  bc 2 0 0 load 1 2
node 10 coords 3  0.0   0.1   0.0  bc 2 1 0 
node 11 coords 3  0.1   0.1   0.0  bc 2 0 0 
node 12 coords 3  0.2   0.1   0.0  bc 2 0 0 
node 13 coords 3  0.3   0.1   0.0  bc 2 0 0 
node 14 coords 3  0.4   0.1   0.0  bc 2 0 0 
node 15 coords 3  0.5   0.1   0.0  bc 2 0 0 
node 16 coords 3  0.6   0.1   0.0  bc 2 0 0 
node 17 coords 3  0.7   0.1   0.0  bc 2 0 0 
node 18 coords 3  0.8   0.1   0.0  bc 2 0 0 load 1 2
node 19 coords 3  0.0   0.2   0.0  bc 2 1 1 
node 20 coords 3  0.1   0.2   0.0  bc 2 0 0 
node 21 coords 3  0.2   0.2   0.0  bc 2 0 0 
node 22 coords 3  0.3   0.2   0.0  bc 2 0 0 
node 23 coords 3  0.4   0.2   0.0  bc 2 0 0 
node 24 coords 3  0.5   0.2   0.0  bc 2 0 0 
node 25 coords 3  0.6   0.2   0.0  bc 2 0 0 
node 26 coords 3  0.7   0.2   0.0  bc 2 0 0 
node 27 coords 3  0.8   0.2   0.0  bc 2 0 0 load 1 2
node 28 coords 3  0.0   0.3   0.0  bc 2 1 0 
node 29 coords 3  0.1   0.3   0.0  bc 2 0 0 
node 30 coords 3  0.2   0.3   0.0  bc 2 0 0 
node 31 coords 3  0.3   0.3   0.0  bc 2 0 0 
node 32 coords 3  0.4   0.3   0.0  bc 2 0 0 
node 33 coords 3  0.5   0.3   0.0  bc 2 0 0 
node 34 coords 3  0.6   0.3   0.0  bc 2 0 0 
node 35 coords 3  0.7   0.3   0.0  bc 2 0 0 
node 36 coords 3  0.8   0.3   0.0  bc 2 0 0 load 1 2
node 37 coords 3  0.0   0.4   0.0  bc 2 1 0 
node 38 coords 3  0.1   0.4   0.0  bc 2 0 0 
node 39 coords 3  0.2   0.4   0.0  bc 2 0 0 
node 40 coords 3  0.3   0.4   0.0  bc 2 0 0 
node 41 coords 3  0.4   0.4   0.0  bc 2 0 0 
node 42 coords 3  0.5   0.4   0.0  bc 2 0 0 
node 43 coords 3  0.6   0.4   0.0  bc 2 0 0 
node 44 coords 3  0.7   0.4   0.0  bc 2 0 0 
node 45 coords 3  0.8   0.4   0.0  bc 2 0 0 load 1 2
#
PlaneStress2d 1 nodes 4 1 2 11 10  crossSect 1 mat 1  
PlaneStress2d 2 nodes 4 2 3 12 11  crossSect 1 mat 1  
PlaneStress2d 3 nodes 4 3 4 13 12  crossSect 1 mat 1  
PlaneStress2d 4 nodes 4 4 5 14 13  crossSect 1 mat 1  
PlaneStress2d 5 nodes 4 5 6 15 14  crossSect 1 mat 1  
PlaneStress2d 6 nodes 4 6 7 16 15  crossSect 1 mat 1  
PlaneStress2d 7 nodes 4 7 8 17 16  crossSect 1 mat 1  
PlaneStress2d 8 nodes 4 8 9 18 17  crossSect 1 mat 1  
PlaneStress2d 9  nodes 4 10 11 20 19  crossSect 1 mat 1 
PlaneStress2d 10 nodes 4 11 12 21 20  crossSect 1 mat 1 
PlaneStress2d 11 nodes 4 12 13 22 21  crossSect 1 mat 1 
PlaneStress2d 12 nodes 4 13 14 23 22  crossSect 1 mat 1 
PlaneStress2d 13 nodes 4 14 15 24 23  crossSect 1 mat 1 
PlaneStress2d 14 nodes 4 15 16 25 24  crossSect 1 mat 1 
PlaneStress2d 15 nodes 4 16 17 26 25  crossSect 1 mat 1 
PlaneStress2d 16 nodes 4 17 18 27 26  crossSect 1 mat 1 
PlaneStress2d 17 nodes 4 19 20 29 28  crossSect 1 mat 1 
PlaneStress2d 18 nodes 4 20 21 30 29  crossSect 1 mat 1 
PlaneStress2d 19 nodes 4 21 22 31 30  crossSect 1 mat 1 
PlaneStress2d 20 nodes 4 22 23 32 31  crossSect 1 mat 1 
# ... 12 like lines cut
#
SimpleCS 1 thick 0.15 width 1.0
IsoLE 1 d 0. E 15.0 n 0.25 tAlpha 0.000012
BoundaryCondition  1 loadTimeFunction 1 prescribedvalue 0.0 
NodalLoad 2 loadTimeFunction 1 Components 2 -2.5 0.0
ConstantFunction 1 f(t) 1.0
#
#
#
#%BEGIN_CHECK% tolerance 1.e-4
## check reactions 
#REACTION tStep 1 number 1 dof 1 value 3.1252e+00
#REACTION tStep 1 number 37 dof 1 value 3.1252e+00
#REACTION tStep 1 number 10 dof 1 value 6.2498e+00
#REACTION tStep 1 number 19 dof 1 value 6.2501e+00
#REACTION tStep 1 number 28 dof 1 value 6.2498e+00
## check nodes
#NODE tStep 1 number 9 dof 1 unknown d value -2.55951091e+01
#NODE tStep 1 number 18 dof 1 unknown d value -2.11882980e+01
#NODE tStep 1 number 27 dof 1 unknown d value -2.09171837e+01
#NODE tStep 1 number 36  dof 1 unknown d value -2.11882980e+01
#NODE tStep 1 number 45 dof 1 unknown d value -2.55951091e+01
#NODE tStep 1 number 23 dof 1 unknown d value -1.11309919e+01
## check elements
#ELEMENT tStep 1 number 13 gp 1 keyword "strains" component 1  value -2.7369e+01
#ELEMENT tStep 1 number 13 gp 1 keyword "strains" component 2  value 5.9109e+00
#ELEMENT tStep 1 number 13 gp 1 keyword "strains" component 6  value 6.1289e-01
#ELEMENT tStep 1 number 21 gp 4 keyword "strains" component 1  value -2.7369e+01
#ELEMENT tStep 1 number 21 gp 4 keyword "strains" component 2  value 6.4679e+00
#ELEMENT tStep 1 number 21 gp 4 keyword "strains" component 6  value -6.1289e-01
#%END_CHECK%
