lb02.out
Test of PlaneStress2d elements -> pure compression in x direction
NonLinearStatic nsteps 2 controlmode 1 rtolv 1.e-3 refloadmode 0 lstype 3 smtype 7 lbflag 1 nmodules 1
errorcheck filename "lb02.oofem.in"
domain 2dPlaneStress
OutputManager tstep_all dofman_all element_all
ndofman 45 nelem 32 ncrosssect 1 nmat 1 nbc 3 nic 0 nltf 1 nset 4
#
node 1 coords 3  0.0   0.0   0.0
node 2 coords 3  0.1   0.0   0.0
node 3 coords 3  0.2   0.0   0.0
node 4 coords 3  0.3   0.0   0.0
node 5 coords 3  0.4   0.0   0.0
node 6 coords 3  0.5   0.0   0.0
node 7 coords 3  0.6   0.0   0.0
node 8 coords 3  0.7   0.0   0.0
node 9 coords 3  0.8   0.0   0.0
node 10 coords 3  0.0   0.1   0.0
node 11 coords 3  0.1   0.1   0.0
node 12 coords 3  0.2   0.1   0.0
node 13 coords 3  0.3   0.1   0.0
node 14 coords 3  0.4   0.1   0.0
node 15 coords 3  0.5   0.1   0.0
node 16 coords 3  0.6   0.1   0.0
node 17 coords 3  0.7   0.1   0.0
node 18 coords 3  0.8   0.1   0.0
node 19 coords 3  0.0   0.2   0.0
node 20 coords 3  0.1   0.2   0.0
# ... 25 like lines cut
#
PlaneStress2d 1 nodes 4 1 2 11 10 
PlaneStress2d 2 nodes 4 2 3 12 11 
PlaneStress2d 3 nodes 4 3 4 13 12 
PlaneStress2d 4 nodes 4 4 5 14 13 
PlaneStress2d 5 nodes 4 5 6 15 14 
PlaneStress2d 6 nodes 4 6 7 16 15 
PlaneStress2d 7 nodes 4 7 8 17 16 
PlaneStress2d 8 nodes 4 8 9 18 17 
PlaneStress2d 9  nodes 4 10 11 20 19
PlaneStress2d 10 nodes 4 11 12 21 20
PlaneStress2d 11 nodes 4 12 13 22 21
PlaneStress2d 12 nodes 4 13 14 23 22
PlaneStress2d 13 nodes 4 14 15 24 23
PlaneStress2d 14 nodes 4 15 16 25 24
PlaneStress2d 15 nodes 4 16 17 26 25
PlaneStress2d 16 nodes 4 17 18 27 26
PlaneStress2d 17 nodes 4 19 20 29 28
PlaneStress2d 18 nodes 4 20 21 30 29
PlaneStress2d 19 nodes 4 21 22 31 30
PlaneStress2d 20 nodes 4 22 23 32 31
# ... 12 like lines cut
#
Set 1 elementranges {(1 32)}
Set 2 nodes 5 1 10 19 28 37
Set 3 nodes 1 19
Set 4 nodes 5 9 18 27 36 45
#
SimpleCS 1 thick 0.15 width 1.0 material 1 set 1
IsoLE 1 d 0. E 15.0 n 0.25 tAlpha 0.000012
BoundaryCondition 1 loadTimeFunction 1 dofs 1 1 values 1 0.0 set 2
BoundaryCondition 2 loadTimeFunction 1 dofs 1 2 values 1 0.0 set 3
NodalLoad 3 loadTimeFunction 1 dofs 2 1 2 Components 2 -2.5 0.0 set 4
ConstantFunction 1 f(t) 1.0
#
#
#
#%BEGIN_CHECK% tolerance 1.e-4
## check reactions 
#REACTION tStep 2 number 1 dof 1 value 3.1252e+00
#REACTION tStep 2 number 37 dof 1 value 3.1252e+00
#REACTION tStep 2 number 10 dof 1 value 6.2498e+00
#REACTION tStep 2 number 19 dof 1 value 6.2501e+00
#REACTION tStep 2 number 28 dof 1 value 6.2498e+00
## check nodes
#NODE tStep 2 number 9 dof 1 unknown d value -2.55951091e+01
#NODE tStep 2 number 18 dof 1 unknown d value -2.11882980e+01
#NODE tStep 2 number 27 dof 1 unknown d value -2.09171837e+01
#NODE tStep 2 number 36  dof 1 unknown d value -2.11882980e+01
#NODE tStep 2 number 45 dof 1 unknown d value -2.55951091e+01
#NODE tStep 2 number 23 dof 1 unknown d value -1.11309919e+01
## check elements
#ELEMENT tStep 2 number 13 gp 1 keyword 4 component 1  value -2.7369e+01
#ELEMENT tStep 2 number 13 gp 1 keyword 4 component 2  value 5.9109e+00
#ELEMENT tStep 2 number 13 gp 1 keyword 4 component 6  value 6.1289e-01
#ELEMENT tStep 2 number 21 gp 4 keyword 4 component 1  value -2.7369e+01
#ELEMENT tStep 2 number 21 gp 4 keyword 4 component 2  value 6.4679e+00
#ELEMENT tStep 2 number 21 gp 4 keyword 4 component 6  value -6.1289e-01
#%END_CHECK%
