brazil_3d_nl.oofem.out
3D brazilian splitting test
#
# lstype (if metasteps are used, must be specified for each metastep)
#====================================================================
# direct solver 0 (default)
# CG solver     1
# GMRES solver  2
#
# smtype (must be in analysis record)
#====================================
# symmetric skyline             0 (default)
# symmetric compressed columns  4 (only with CG or GMRES)
# dynamic compressed columns    2 (only with CG or GMRES)
#
# solverParams (if metasteps are used, must be specified for each metastep)
#==========================================================================
# lstol (should be at least by two orders of magnitude less than rtolv)
# lsiter (large enough)
# lsprecond 
#----------
# incomplete cholesky    3 (only for smtype 4)
# incomplete LU          2 (only for smtype 2)       droptol (default 1.0e-9) partfill (default 5)
#
linearstatic nsteps 1 renumber 1 nmodules 1
errorcheck filename "brazil_3d_nl.oofem.in"
domain 3d
OutputManager tstep_all dofman_all element_all
ndofman 3508 nelem 16980 ncrosssect 2 nmat 2 nbc 4 nltf 1 nic 0 nset 6
node 1 coords 3 0.000000e+00 0.000000e+00 0.000000e+00
node 2 coords 3 4.000000e+01 0.000000e+00 0.000000e+00
node 3 coords 3 5.000000e+00 0.000000e+00 0.000000e+00
node 4 coords 3 5.000000e+00 0.000000e+00 3.968627e+01
node 5 coords 3 0.000000e+00 0.000000e+00 3.968627e+01
node 6 coords 3 5.000000e+00 0.000000e+00 4.268627e+01
node 7 coords 3 0.000000e+00 0.000000e+00 4.268627e+01
node 8 coords 3 1.000000e+00 0.000000e+00 4.268627e+01
node 9 coords 3 0.000000e+00 8.000000e+01 0.000000e+00
node 10 coords 3 4.000000e+01 8.000000e+01 0.000000e+00
node 11 coords 3 5.000000e+00 8.000000e+01 0.000000e+00
node 12 coords 3 5.000000e+00 8.000000e+01 3.968627e+01
node 13 coords 3 0.000000e+00 8.000000e+01 3.968627e+01
node 14 coords 3 5.000000e+00 8.000000e+01 4.268627e+01
node 15 coords 3 0.000000e+00 8.000000e+01 4.268627e+01
node 16 coords 3 1.000000e+00 8.000000e+01 4.268627e+01
node 17 coords 3 2.500000e+00 0.000000e+00 0.000000e+00
node 18 coords 3 8.221213e+00 0.000000e+00 0.000000e+00
node 19 coords 3 1.299866e+01 0.000000e+00 0.000000e+00
node 20 coords 3 2.034318e+01 0.000000e+00 0.000000e+00
# ... 3488 like lines cut
LTrSpace 1 nodes 4 29 4 237 638 mat 1
LTrSpace 2 nodes 4 5 29 238 639 mat 1
LTrSpace 3 nodes 4 22 2 21 381 mat 1
LTrSpace 4 nodes 4 23 22 239 576 mat 1
LTrSpace 5 nodes 4 24 23 240 577 mat 1
LTrSpace 6 nodes 4 25 24 241 578 mat 1
LTrSpace 7 nodes 4 1213 26 25 579 mat 1
LTrSpace 8 nodes 4 27 26 243 580 mat 1
LTrSpace 9 nodes 4 28 27 244 533 mat 1
LTrSpace 10 nodes 4 4 28 245 111 mat 1
LTrSpace 11 nodes 4 30 5 238 747 mat 1
LTrSpace 12 nodes 4 31 30 246 748 mat 1
LTrSpace 13 nodes 4 32 31 247 749 mat 1
LTrSpace 14 nodes 4 33 32 248 750 mat 1
LTrSpace 15 nodes 4 34 33 249 751 mat 1
LTrSpace 16 nodes 4 35 34 250 752 mat 1
LTrSpace 17 nodes 4 36 35 251 753 mat 1
LTrSpace 18 nodes 4 37 36 252 754 mat 1
LTrSpace 19 nodes 4 38 37 253 755 mat 1
LTrSpace 20 nodes 4 39 38 254 756 mat 1
# ... 16960 like lines cut
Set 1 elementranges {(1 16628)}
Set 2 elementranges {(16629 16980)}
Set 3 noderanges {1 5 7 9 13 15 (30 44) (58 103) (142 172) (192 214) (670 1204)}
Set 4 noderanges {(1 8) (17 44) (237 308)}
Set 5 noderanges {(1 3) (9 11) (17 21) (45 49) (73 110) (381 532)}
Set 6 elementboundaries 94  16646 1  16809 2  16810 2  16811 2  16812 2  16813 2  16814 2  16815 2  16816 2  16817 2  16818 2  16819 2  16820 2  \
16821 2  16822 2  16823 2  16824 2  16825 2  16826 2  16827 2  16828 2  16829 2  16830 2  16831 2  16832 2  16866 1  16868 1  16871 1  16872 1 \
16873 1  16874 1  16875 1  16876 1  16877 1  16878 1  16879 1  16880 1  16881 1  16884 1  16886 1  16894 1  16897 1  16918 2  16920 2  16923 2 \
16927 2  16975 2
SimpleCS 1 material 1 set 1
SimpleCS 2 material 2 set 2
IsoLE  1 d 1.0 E 37.7e3 n 0.2 talpha 0.0
IsoLE  2 d 1.0 E 300.e3 n 0.2 talpha 0.0
#idnlm1 1 d 1.0 E 30.e3 n 0.18 talpha 0.0 e0 0.00011666666667 ef 0.0059953333333 R 5.0 equivstraintype 1 regionMap 2 0 1
#IsoLE  2 d 1.0 E 210.e3 n 0.3 talpha 0.0
BoundaryCondition 1 loadTimeFunction 1 dofs 1 1 values 1 0.0 set 3
BoundaryCondition 2 loadTimeFunction 1 dofs 1 2 values 1 0.0 set 4
BoundaryCondition 3 loadTimeFunction 1 dofs 1 3 values 1 0.0 set 5
ConstantSurfaceLoad 4 loadTimeFunction 1 components 3 0 0 -1.0 loadType 3 set 6
ConstantFunction 1 f(t) 1.0

#%BEGIN_CHECK% tolerance 1.e-9
#NODE tStep 1 number 7 dof 3 unknown d value -8.26517051e-05
#NODE tStep 1 number 3 dof 1 unknown d value  2.99604749e-06
#NODE tStep 1 number 11 dof 1 unknown d value 3.67854565e-06
#%END_CHECK%
