4test.oofem.out
1D PETSc test
linearstatic nsteps 1 
domain 2dPlaneStress
OutputManager tstep_all dofman_all element_all
ndofman 15 nelem 8 ncrosssect 1 nmat 1 nbc 2 nltf 1 nic 0
node 1 coords 3 0.000000e+00 0.000000e+00 0.000000e+00 bc 2 1 1
node 2 coords 3 5.000000e+00 0.000000e+00 0.000000e+00
node 3 coords 3 1.000000e+01 0.000000e+00 0.000000e+00
node 4 coords 3 0.000000e+00 1.000000e+00 0.000000e+00 bc 2 1 0
node 5 coords 3 5.000000e+00 1.000000e+00 0.000000e+00
node 6 coords 3 1.000000e+01 1.000000e+00 0.000000e+00
node 7 coords 3 0.000000e+00 2.000000e+00 0.000000e+00 bc 2 1 0
node 8 coords 3 5.000000e+00 2.000000e+00 0.000000e+00
node 9 coords 3 1.000000e+01 2.000000e+00 0.000000e+00
node 10 coords 3 2.500000e+00 0.000000e+00 0.000000e+00
node 11 coords 3 7.500000e+00 0.000000e+00 0.000000e+00
node 12 coords 3 7.500000e+00 2.000000e+00 0.000000e+00
node 13 coords 3 2.500000e+00 2.000000e+00 0.000000e+00
node 14 coords 3 2.500000e+00 1.000000e+00 0.000000e+00
node 15 coords 3 7.500000e+00 1.000000e+00 0.000000e+00
Planestress2D 1 nodes 4 1 10 14 4 crossSect 1 mat 1
Planestress2D 2 nodes 4 10 2 5 14 crossSect 1 mat 1
Planestress2D 3 nodes 4 2 11 15 5 crossSect 1 mat 1
Planestress2D 4 nodes 4 11 3 6 15 crossSect 1 mat 1 boundaryLoads 2 2 2
Planestress2D 5 nodes 4 5 15 12 8 crossSect 1 mat 1
Planestress2D 6 nodes 4 15 6 9 12 crossSect 1 mat 1 boundaryLoads 2 2 2
Planestress2D 7 nodes 4 4 14 13 7 crossSect 1 mat 1
Planestress2D 8 nodes 4 14 5 8 13 crossSect 1 mat 1
SimpleCS 1 thick 1.0 width 1.0
IsoLE  1 d 1.0 E 300.e3 n 0.2 talpha 0.0
BoundaryCondition 1 loadTimeFunction 1 prescribedvalue 0.0 
ConstantEdgeLoad 2 loadTimeFunction 1 components 2 1.0 0.0 ndofs 2 loadtype 3
ConstantFunction 1 f(t) 1.0
#%BEGIN_CHECK% tolerance 2.e-6
## check reactions 
#REACTION tStep 1 number 1 dof 1 value -0.5
#REACTION tStep 1 number 4 dof 1 value -1.0
#REACTION tStep 1 number 7 dof 1 value -0.5
## check all nodes
#NODE tStep 1 number 3 dof 1 unknown d value  3.33333333e-05
#NODE tStep 1 number 6 dof 1 unknown d value  3.33333333e-05
#NODE tStep 1 number 9 dof 1 unknown d value  3.33333333e-05
## check element strain vector
#ELEMENT tStep 1 number 1 gp 1 keyword "strains" component 1  value 3.3333e-06
#ELEMENT tStep 1 number 1 gp 1 keyword "strains" component 2  value -6.6667e-07
#ELEMENT tStep 1 number 1 gp 1 keyword "strains" component 6  value 0.0
## check element stress vector
#ELEMENT tStep 1 number 1 gp 1 keyword "stresses" component 1  value 1.0
#ELEMENT tStep 1 number 1 gp 1 keyword "stresses" component 2  value 0.0
#ELEMENT tStep 1 number 1 gp 1 keyword "stresses" component 6  value 0.0
##
#%END_CHECK%