concrete_3point.out
Test: 3-point bending, triangular elements, 1 loaded point
NonLinearStatic nsteps 20 stepLength 0.025  rtolf 1e-4 Psi 0.0 MaxIter 200 reqIterations 80 HPC 2 1 2 stiffmode 1 nmodules 1
errorcheck
domain 2dPlaneStress
#
# zkracena verze vypoctu z me disertace
#
#Monitored 2
#1 node 1 displacement 2 *
#2 node 1 force        2 *
#**
#
OutputManager tstep_all dofman_all element_all
ndofman 444 nelem 799 ncrosssect 2 nmat 2 nbc 3 nic 0 nltf 1 nset 5
node 1 coords 2 1000.000000 500.000000
node 2 coords 2 900.000000 0.000000
node 3 coords 2 850.755859 0.000000
node 4 coords 2 796.661743 0.000000
node 5 coords 2 736.054993 0.000000
node 6 coords 2 667.393921 0.000000
node 7 coords 2 589.319580 0.000000
node 8 coords 2 500.725708 0.000000
node 9 coords 2 400.839996 0.000000
node 10 coords 2 289.309998 0.000000
node 11 coords 2 166.261612 0.000000
node 12 coords 2 0.000000 0.000000
node 13 coords 2 900.000000 500.000000
node 14 coords 2 900.000000 475.552399
node 15 coords 2 900.000000 451.711365
node 16 coords 2 900.000000 428.109802
node 17 coords 2 900.000000 404.331390
node 18 coords 2 900.000000 380.010651
node 19 coords 2 900.000000 354.926605
node 20 coords 2 900.000000 329.090668
# ... 424 like lines cut
#**
#
#Element 799
#
#TrPlaneStress2d Elements
#
TrPlaneStress2d 1 nodes 3 14 48 15 
TrPlaneStress2d 2 nodes 3 15 49 16 
TrPlaneStress2d 3 nodes 3 16 50 17 
TrPlaneStress2d 4 nodes 3 13 31 14 
TrPlaneStress2d 5 nodes 3 17 51 18 
TrPlaneStress2d 6 nodes 3 18 52 19 
TrPlaneStress2d 7 nodes 3 23 53 24 
TrPlaneStress2d 8 nodes 3 24 54 25 
TrPlaneStress2d 9 nodes 3 25 55 26 
TrPlaneStress2d 10 nodes 3 19 56 20 
TrPlaneStress2d 11 nodes 3 20 57 21 
TrPlaneStress2d 12 nodes 3 21 58 22 
TrPlaneStress2d 13 nodes 3 22 59 23 
TrPlaneStress2d 14 nodes 3 26 60 27 
TrPlaneStress2d 15 nodes 3 48 49 15 
TrPlaneStress2d 16 nodes 3 48 61 49 
TrPlaneStress2d 17 nodes 3 14 31 48 
TrPlaneStress2d 18 nodes 3 49 50 16 
TrPlaneStress2d 19 nodes 3 49 62 50 
TrPlaneStress2d 20 nodes 3 27 63 28 
# ... 779 like lines cut
#**
#
#
SimpleCS 1 thick 1.0 material 1 set 1
SimpleCS 2 thick 1.0 material 2 set 2
#
IsoLE 1 d 2500.000000 E  20.e3 n 0.200000  tAlpha 0.000012
Concrete3 2 d 0. E 20.e3  n 0.2 Gf 0.1  Ft 2.5 tAlpha 0.000012
#
BoundaryCondition 1 loadTimeFunction 1 dofs 2 1 2 values 2 0. 0. set 3
BoundaryCondition 2 loadTimeFunction 1 dofs 1 2 values 1 0. set 4
#BoundaryCondition 3 loadTimeFunction 2 dofs 1 2 values 1 -0.025 set 5
NodalLoad  3 loadTimeFunction 1 dofs 2 1 2 Components 2 0. -1.0 set 5
ConstantFunction 1 f(t) 2.0
Set 1 elementranges {(1 240) (562 799)}
Set 2 elementranges {(241 561)}
Set 3 nodes 1 12
Set 4 nodes 1 330
Set 5 nodes 1 1
#
#
#
#%BEGIN_CHECK% tolerance 1.e-6
## check load levels
#LOADLEVEL tStep 1 value 6.105389
#LOADLEVEL tStep 2 value 12.210779
#LOADLEVEL tStep 3 value 18.160715
#LOADLEVEL tStep 4 value 23.798851
#LOADLEVEL tStep 5 value 28.987424
#LOADLEVEL tStep 6 value 33.733775
#LOADLEVEL tStep 7 value 38.101680
#LOADLEVEL tStep 8 value 41.454458
#LOADLEVEL tStep 9 value 43.523632
#LOADLEVEL tStep 10 value 43.944412
#LOADLEVEL tStep 11 value 40.616307
#LOADLEVEL tStep 12 value 35.640997
#LOADLEVEL tStep 13 value 33.458921
#LOADLEVEL tStep 14 value 30.429273
#LOADLEVEL tStep 15 value 28.534107
#LOADLEVEL tStep 16 value 26.685269
#LOADLEVEL tStep 17 value 25.713360
#LOADLEVEL tStep 18 value 23.581970
#LOADLEVEL tStep 19 value 22.329408
#LOADLEVEL tStep 20 value 21.473918
## check node displacement at final step
#NODE tStep 1 number 1 dof 2 unknown d value -2.50000000e-02 tolerance 1.e-9
#NODE tStep 2 number 1 dof 2 unknown d value -5.00000000e-02 tolerance 1.e-9
#NODE tStep 3 number 1 dof 2 unknown d value -7.50000000e-02 tolerance 1.e-9
#NODE tStep 4 number 1 dof 2 unknown d value -1.00000000e-01 tolerance 1.e-9
#NODE tStep 5 number 1 dof 2 unknown d value -1.25000000e-01 tolerance 1.e-9
#NODE tStep 6 number 1 dof 2 unknown d value -1.50000000e-01 tolerance 1.e-9
#NODE tStep 7 number 1 dof 2 unknown d value -1.75000000e-01 tolerance 1.e-9
#NODE tStep 8 number 1 dof 2 unknown d value -2.00000000e-01 tolerance 1.e-9
#NODE tStep 9 number 1 dof 2 unknown d value -2.23529412e-01 tolerance 1.e-9
#NODE tStep 10 number 1 dof 2 unknown d value -2.48506881e-01 tolerance 1.e-9
#NODE tStep 11 number 1 dof 2 unknown d value -2.73484350e-01 tolerance 1.e-9
#NODE tStep 12 number 1 dof 2 unknown d value -2.88622210e-01 tolerance 1.e-9
#NODE tStep 13 number 1 dof 2 unknown d value -2.99732566e-01 tolerance 1.e-9
#NODE tStep 14 number 1 dof 2 unknown d value -3.11434890e-01 tolerance 1.e-9
#NODE tStep 15 number 1 dof 2 unknown d value -3.23957999e-01 tolerance 1.e-9
#NODE tStep 16 number 1 dof 2 unknown d value -3.37148350e-01 tolerance 1.e-9
#NODE tStep 17 number 1 dof 2 unknown d value -3.51381985e-01 tolerance 1.e-9
#NODE tStep 18 number 1 dof 2 unknown d value -3.65945211e-01 tolerance 1.e-9
#NODE tStep 19 number 1 dof 2 unknown d value -3.80153237e-01 tolerance 1.e-9
#NODE tStep 20 number 1 dof 2 unknown d value -3.96213669e-01 tolerance 1.e-9
##
##
## check some arbitrary element
#ELEMENT tStep 10 number 338 gp 1 keyword 4 component 1 value 1.93951745e-03 tolerance 1.e-8
#ELEMENT tStep 10 number 338 gp 1 keyword 4 component 2 value 1.26544635e-05 tolerance 1.e-8
#ELEMENT tStep 10 number 338 gp 1 keyword 4 component 6 value 3.40924245e-04 tolerance 1.e-8
#ELEMENT tStep 10 number 338 gp 1 keyword 1 component 1 value 1.01732715e+00 tolerance 1.e-8
#ELEMENT tStep 10 number 338 gp 1 keyword 1 component 2 value 1.65217303e-01 tolerance 1.e-8
#ELEMENT tStep 10 number 338 gp 1 keyword 1 component 6 value 7.53828658e-02 tolerance 1.e-8
##
#ELEMENT tStep 20 number 338 gp 1 keyword 4 component 1 value 6.49791757e-03 tolerance 1.e-8
#ELEMENT tStep 20 number 338 gp 1 keyword 4 component 2 value 6.02559845e-05 tolerance 1.e-8
#ELEMENT tStep 20 number 338 gp 1 keyword 4 component 6 value 1.92610989e-03 tolerance 1.e-8
#ELEMENT tStep 20 number 338 gp 1 keyword 1 component 1 value -3.38740932e-02 tolerance 1.e-8
#ELEMENT tStep 20 number 338 gp 1 keyword 1 component 2 value -1.58065960e+00 tolerance 1.e-8
#ELEMENT tStep 20 number 338 gp 1 keyword 1 component 6 value 2.31394491e-01 tolerance 1.e-8
#%END_CHECK%
