Tr2Shell7XFEM_multicrack.out
Test case with 2 interlaminar and 2 intralaminar cracks
#XFEMStatic nsteps 1 lstype 0 smtype 0 maxiter 3 rtolf 1.0e-5 rtold -1.0 manrmsteps 1 controllmode 1 nmodules 1 initialguess 1
StaticStructural nsteps 1 lstype 0 smtype 0 maxiter 3 rtolf 1.0e-5 rtold -1.0 manrmsteps 1 nmodules 1
#vtkxml tstep_all dofman_all element_all primvars 1 1 
errorcheck 1
domain 3dDirShell 
OutputManager tstep_all dofman_all element_all
ndofman 9 nelem 2 ncrosssect 1 nmat 1 nbc 3 nic 0 nltf 2 nxfemman 1 nset 5 
node 1 coords 3 0.0  0.0  0.0
node 2 coords 3 0.5  0.0  0.0
node 3 coords 3 1.0  0.0  0.0
node 4 coords 3 0.0  0.5  0.0
node 5 coords 3 0.5  0.5  0.0
node 6 coords 3 1.0  0.5  0.0
node 7 coords 3 0.0  1.0  0.0
node 8 coords 3 0.4999999999  1.0  0.0
node 9 coords 3 1.0  1.0  0.0
## Elements 
Tr2Shell7XFEM 1 nodes 6 1 3 9 2 6 5 boundaryLoads  2 2 2
Tr2Shell7XFEM 2 nodes 6 1 9 7 5 8 4 boundaryLoads  2 3 2
# 
## Cross sections 
layeredCS 1 nlayers 3 layermaterials 3 1 1 1 thicks 3 0.01 0.01 0.01 nintegrationpoints 2 set 1 interfacematerials 2 0 0    
# 
## Materials 
IsoLE 1 d 1.0 E 126.0e9 n 0.0 tAlpha 1.0  
# 
## Boundary consitions 
BoundaryCondition 1 loadTimeFunction 1 values 31   0. 0. 0. 0. 0. 0. 0.   0. 0. 0. 0. 0. 0.   0. 0. 0. 0. 0. 0.  0. 0. 0. 0. 0. 0.  0. 0. 0. 0. 0. 0. dofs 31   1 2 3 15 16 17 18   23 24 25 26 27 28   29 30 31 32 33 34  35 36 37 38 39 40  41 42 43 44 45 46 set 4  
#
ConstantEdgeLoad 2 ndofs 8 loadType 2 loadTimeFunction 1 Components 8 0. 0. -1.0e2 0. 0. 0. 0.0 -1.0   
ConstantEdgeLoad 3 ndofs 8 loadType 2 loadTimeFunction 1 Components 8 0. 0. 1.0e2 0. 0. 0. 0.0 1.0   
#
# 
## Load time functions 
ConstantFunction 1 f(t) 1.0  
PiecewiseLinFunction 2 nPoints 2  t 2  0. 1. f(t) 2  0.0 0.1   
# 
## Sets 
# crackedEl
Set 1 elements 2 1 2
#
# enrichedNodes
Set 2 nodes 9  1 2 3 4 5 6 7 8 9
# load
Set 3 nodes 1 9 
# support
Set 4 nodes 5 1 2 3 4 7
Set 5 nodes 1 9
# 
#
## XFEM 
XfemManager 1 numberofenrichmentitems 4 debugvtk 0  
#
delamination 1 interfacenum 2 1 2 csnum 1 
DiscontinuousFunction 1 
DofManList 1 list 9  1 2 3 4 5 6 7 8 9
#
delamination 2 interfacenum 1 2 csnum 1 
DiscontinuousFunction 1 
DofManList 1 list 9  1 2 3 4 5 6 7 8 9
#
shellcrack 3 enrichmentfront 1 propagationlaw 0 xibottom -1 xitop -.333333
DiscontinuousFunction 1 
polygonline 1 points 6  -2.0 -2.0   -0.4 -0.8   1.4 2.0
EnrFrontDoNothing 1
EnrFrontDoNothing 1
#
shellcrack 4 enrichmentfront 1 propagationlaw 0 xibottom 0.333333 xitop 1
DiscontinuousFunction 1 
polygonline 1 points 6  -2.0 -2.0   -0.8 -0.4   2.0 1.4
EnrFrontDoNothing 1
EnrFrontDoNothing 1
#
#%BEGIN_CHECK% tolerance 1.e-3
#NODE tStep 1 number 1 dof 47 unknown d value 4.94642e-05
#NODE tStep 1 number 1 dof 48 unknown d value -7.5883e-05
#NODE tStep 1 number 1 dof 49 unknown d value 0.00442168
#NODE tStep 1 number 1 dof 50 unknown d value -0.000157894
#NODE tStep 1 number 1 dof 51 unknown d value -6.86528e-06
#NODE tStep 1 number 2 dof 47 unknown d value 0.00124909
#NODE tStep 1 number 2 dof 48 unknown d value 0.110489
#NODE tStep 1 number 2 dof 49 unknown d value -0.374559
#NODE tStep 1 number 2 dof 50 unknown d value -0.228795
#NODE tStep 1 number 2 dof 51 unknown d value -0.000247742
#NODE tStep 1 number 3 dof 47 unknown d value 0.000464808
#NODE tStep 1 number 3 dof 48 unknown d value 0.452443
#NODE tStep 1 number 3 dof 49 unknown d value -0.803816
#NODE tStep 1 number 3 dof 50 unknown d value -0.322842
#NODE tStep 1 number 3 dof 51 unknown d value -0.00111384
#NODE tStep 1 number 4 dof 47 unknown d value 4.47869e-11
#NODE tStep 1 number 4 dof 48 unknown d value -1.88964e-10
#NODE tStep 1 number 4 dof 49 unknown d value -7.73866e-10
#NODE tStep 1 number 4 dof 50 unknown d value -4.86075e-09
#NODE tStep 1 number 4 dof 51 unknown d value -2.6807e-11
# ... 129 like lines cut
#%END_CHECK%

