testTrShell7XFEM.out
Cantilever beam split in two parts by delamination subjected to edge load
XFEMStatic nsteps 1 lstype 0 smtype 0 rtolf 1.0e-4 rtold -1.0 manrmsteps 1 controllmode 1 nmodules 1 initialguess 1 
vtkxml tstep_all dofman_all element_all primvars 1 1 
domain 3dDirShell 
OutputManager tstep_all dofman_all element_all
ndofman 15 nelem 4 ncrosssect 1 nmat 1 nbc 2 nic 0 nltf 1 nxfemman 1 	
node      1 coords 3        0.           0.           0.   bc 7 1 1 1 1 1 1 1 
node      2 coords 3  0.5,           0.,           0.
node      3 coords 3  1.,           0.,           0.
node      4 coords 3  0.,  0.200000003,           0. bc 7 1 1 1 1 1 1 1 
node      5 coords 3  0.5,  0.200000003,           0.
node      6 coords 3  1.,  0.200000003,           0.
node      7 coords 3  0.25,           0.,           0.
node      8 coords 3  0.5,  0.100000001,           0.
node      9 coords 3  0.25,  0.100000001,           0.
node     10 coords 3  0.25,  0.200000003,           0.
node     11 coords 3  0.,  0.100000001,           0. bc 7 1 1 1 1 1 1 1 
node     12 coords 3  0.75,           0.,           0.
node     13 coords 3  1.,  0.100000001,           0.
node     14 coords 3  0.75,  0.100000001,           0.
node     15 coords 3  0.75,  0.200000003,           0.
Tr2Shell7XFEM 1	nodes	6	1  2  5  7  8  9	 mat 1 crossSect 1  
Tr2Shell7XFEM 2	nodes	6	5  4  1 10 11  9	 mat 1 crossSect 1  
Tr2Shell7XFEM 3	nodes	6	2  3  6 12 13 14	 mat 1 crossSect 1 		boundaryLoads  2 2 2
Tr2Shell7XFEM 4	nodes	6   6  5  2 15  8 14	 mat 1 crossSect 1 	
layeredCS 1 nlayers 2 layermaterials 2  1 1  thicks 2  1.00000e-002 1.00000e-002 nintegrationpoints 2  
IsoLE 1 d 1. E 1e9. n 0.0 tAlpha 0.
BoundaryCondition 1 loadTimeFunction 1 prescribedvalue 0.0
ConstantEdgeLoad 2 ndofs 8 loadType 2 loadTimeFunction 1 Components 8 0. 0. 1.0 0. 0. 0. 0.0 1.0
ConstantFunction 1 f(t) 1.
XfemManager 1 numberofenrichmentitems 1 
delamination 1 enrichmentdomains 1 1  enrichmentfunction 1  enrichmentdomain 1 enrichmentfront 1 delaminationxicoord 0.0  
DiscontinuousFunction 1 
DofManList 1 list 12  2 3 5 6 7 8 9 10 12 13 14 15
EnrFrontDoNothing 1
PLDoNothing 1
#%BEGIN_CHECK% tolerance 1.e-5
## Check unknowns in node 13 (mid edge node)
#NODE tStep 0 number 13 dof 8 unknown d value 2.13801213e-005
#NODE tStep 0 number 13 dof 9 unknown d value 3.16073130e-007
#NODE tStep 0 number 13 dof 10 unknown d value 3.75487293e-003
#NODE tStep 0 number 13 dof 11 unknown d value -6.00550422e-003
#NODE tStep 0 number 13 dof 12 unknown d value -1.48540916e-005
#NODE tStep 0 number 13 dof 13 unknown d value -1.80551597e-005
#%END_CHECK%
