## 1. Output file
Tr2shell7XFEM_stressRecovery.out
## 2. Job description
Stress recovery in shell7xfem-triangles, cf. Adaptive XFEM delamination in shell7. cf Främby, Fagerström & Bouzoulis, 'Adaptive modelling of delamination initiation and propagation using an equivalent single-layer shell approach', IJNME, 2016
#
## 3. Analysis type with export modules
StaticStructural nsteps 1 rtolf 1.0e-6 rtold -1.0 manrmsteps 1 nmodules 1
# forcescaledofs 1 18 forcescale 1 10
errorcheck
# StaticStructural nsteps 2 rtolf 2.0e-5 rtold -1.0 manrmsteps 1 nmodules 2 lstype 4 smtype 8
# StaticStructural nsteps 2 rtolf 1.0e-6 rtold -1.0 manrmsteps 1 nmodules 2 lstype 0 smtype 1
#vtkxml 1 tstep_all dofman_all element_all primvars 1 1  vars 1 92
#matlab 1 tstep_all reactionforces 1 integrationpoints 1 internalvars 1 1 ipelset 4
#
## 4. Domain
domain 3dDirShell
#
## 5. Output manager
OutputManager tstep_all element_output {48}
#
## 6. Component size 
ndofman 231 nelem 100 ncrosssect 1 nmat 6 nbc 4 nic 0 nltf 2 nset 5 nxfemman 1
#
## 7. Dof manager (node & element-side record) 
node     1 coords 3  0.000000000000  0.000000000000  0.000000000000 
node     2 coords 3  0.002000000000  0.000000000000  0.000000000000 
node     3 coords 3  0.004000000000  0.000000000000  0.000000000000 
node     4 coords 3  0.006000000000  0.000000000000  0.000000000000 
node     5 coords 3  0.008000000000  0.000000000000  0.000000000000 
node     6 coords 3  0.010000000000  0.000000000000  0.000000000000 
node     7 coords 3  0.012000000000  0.000000000000  0.000000000000 
node     8 coords 3  0.014000000000  0.000000000000  0.000000000000 
node     9 coords 3  0.016000000000  0.000000000000  0.000000000000 
node    10 coords 3  0.018000000000  0.000000000000  0.000000000000 
node    11 coords 3  0.020000000000  0.000000000000  0.000000000000 
node    12 coords 3  0.022000000000  0.000000000000  0.000000000000 
node    13 coords 3  0.024000000000  0.000000000000  0.000000000000 
node    14 coords 3  0.026000000000  0.000000000000  0.000000000000 
node    15 coords 3  0.028000000000  0.000000000000  0.000000000000 
node    16 coords 3  0.030000000000  0.000000000000  0.000000000000 
node    17 coords 3  0.032000000000  0.000000000000  0.000000000000 
node    18 coords 3  0.034000000000  0.000000000000  0.000000000000 
node    19 coords 3  0.036000000000  0.000000000000  0.000000000000 
node    20 coords 3  0.038000000000  0.000000000000  0.000000000000 
# ... 211 like lines cut
#
## 8. Elements 
Tr2Shell7XFEM    1 nodes  6     1     3    45     2    24    23  boundaryLoads 4 3 0 4 0  recoverStress
Tr2Shell7XFEM    2 nodes  6    45    43     1    44    22    23  boundaryLoads 4 3 0 4 0  recoverStress
Tr2Shell7XFEM    3 nodes  6     3     5    47     4    26    25  boundaryLoads 4 3 0 4 0  recoverStress
Tr2Shell7XFEM    4 nodes  6    47    45     3    46    24    25  boundaryLoads 4 3 0 4 0  recoverStress
Tr2Shell7XFEM    5 nodes  6     5     7    49     6    28    27  boundaryLoads 4 3 0 4 0  recoverStress
Tr2Shell7XFEM    6 nodes  6    49    47     5    48    26    27  boundaryLoads 4 3 0 4 0  recoverStress
Tr2Shell7XFEM    7 nodes  6     7     9    51     8    30    29  boundaryLoads 4 3 0 4 0  recoverStress
Tr2Shell7XFEM    8 nodes  6    51    49     7    50    28    29  boundaryLoads 4 3 0 4 0  recoverStress
Tr2Shell7XFEM    9 nodes  6     9    11    53    10    32    31  boundaryLoads 4 3 0 4 0  recoverStress
Tr2Shell7XFEM   10 nodes  6    53    51     9    52    30    31  boundaryLoads 4 3 0 4 0  recoverStress
Tr2Shell7XFEM   11 nodes  6    11    13    55    12    34    33  boundaryLoads 4 3 0 4 0  recoverStress
Tr2Shell7XFEM   12 nodes  6    55    53    11    54    32    33  boundaryLoads 4 3 0 4 0  recoverStress
Tr2Shell7XFEM   13 nodes  6    13    15    57    14    36    35  boundaryLoads 4 3 0 4 0  recoverStress
Tr2Shell7XFEM   14 nodes  6    57    55    13    56    34    35  boundaryLoads 4 3 0 4 0  recoverStress
Tr2Shell7XFEM   15 nodes  6    15    17    59    16    38    37  boundaryLoads 4 3 0 4 0  recoverStress
Tr2Shell7XFEM   16 nodes  6    59    57    15    58    36    37  boundaryLoads 4 3 0 4 0  recoverStress
Tr2Shell7XFEM   17 nodes  6    17    19    61    18    40    39  boundaryLoads 4 3 0 4 0  recoverStress
Tr2Shell7XFEM   18 nodes  6    61    59    17    60    38    39  boundaryLoads 4 3 0 4 0  recoverStress
Tr2Shell7XFEM   19 nodes  6    19    21    63    20    42    41  boundaryLoads 4 3 0 4 0  recoverStress
Tr2Shell7XFEM   20 nodes  6    63    61    19    62    40    41  boundaryLoads 4 3 0 4 0  recoverStress
# ... 80 like lines cut
#
## 9. Cross section
#layeredCS 1 nlayers 4 layermaterials 4 2 3 3 2 thicks 4 0.001 0.001 0.001 0.001 nintegrationpoints 3 set 5
layeredCS 1 nlayers 4 layermaterials 4 3 5 4 2 thicks 4 0.001 0.001 0.001 0.001 nintegrationpoints 3 set 5 interfacematerials 3 6 6 6 
#layeredCS 1 nlayers 4 layermaterials 4 1 1 1 1 thicks 4 0.001 0.001 0.001 0.001 nintegrationpoints 3 set 5 interfacematerials 3 6 6 6 
#layeredCS 1 nlayers 2 layermaterials 2 1 1 thicks 2 0.002 0.002 nintegrationpoints 3 set 5
#layeredCS 1 nlayers 1 layermaterials 1 1 thicks 1 0.004 nintegrationpoints 3 set 5 
#layeredCS 1 nlayers 3 layermaterials 3 1 1 1 thicks 3 0.00133333  0.00133333  0.00133333 nintegrationpoints 3 set 5
# 
## 10. Material type 
IsoLE 1  tAlpha 0.0  d 0  E 210.0e9  n 0.0  
# Ortotropic elasticity
#  0 ply
OrthoLE  2 d 1.0e3 Ex 100e9 Ey 10e9 Ez 10e9 NYyz .25 NYxz .25 NYxy .25 Gyz 4e9 Gxz 5e9 Gxy 5e9 tAlphax 1e-6 tAlphay 1e-6 tAlphaz 1e-6 lcs 6  1.  0.  0.  0.  1.  0.
# 90 ply
OrthoLE  3 d 1.0e3 Ex 100e9 Ey 10e9 Ez 10e9 NYyz .25 NYxz .25 NYxy .25 Gyz 4e9 Gxz 5e9 Gxy 5e9 tAlphax 1e-6 tAlphay 1e-6 tAlphaz 1e-6 lcs 6  0.  1.  0. -1.  0.  0.
# +45 ply
OrthoLE  4 d 1.0e3 Ex 100e9 Ey 10e9 Ez 10e9 NYyz .25 NYxz .25 NYxy .25 Gyz 4e9 Gxz 5e9 Gxy 5e9 tAlphax 1e-6 tAlphay 1e-6 tAlphaz 1e-6 lcs 6 .7071  .7071  0. -.7071  .7071  0.
# -45 ply
OrthoLE  5 d 1.0e3 Ex 100e9 Ey 10e9 Ez 10e9 NYyz .25 NYxz .25 NYxy .25 Gyz 4e9 Gxz 5e9 Gxy 5e9 tAlphax 1e-6 tAlphay 1e-6 tAlphaz 1e-6 lcs 6 .7071 -.7071  0.  .7071  .7071  0.
#
#IntMatBilinearCZFagerstrom 6 kn 2.0e9 ks 2.0e3 g1c 1000e3 g2c 1000e3 mu 0.0 gamma 1.0 sigf 300.0e6  
#intmatelastic 6  k 2.0e9
intmatbilinearczjansson 6 kn 1.0e15 g1c 1000e15 mu 0.0 gamma 1.0 sigf 1000.0e6  
#intmatbilinearczelastic 6 kn 2.0e9 ks 2.0e9 g1c 1000e9 sigfn 2.0e9  
#
## 11. Nonlocal barrier
#
## 12. Load and boundary conditions
BoundaryCondition 1 loadTimeFunction 1 dofs 9  1 2 3 17 18  500 501 502 505  values 9  0. 0. 0. 0. 0. 0. 0. 0. 0.  set 1 
BoundaryCondition 2 loadTimeFunction 1 dofs 5      3 17 18          502 205  values 5        0. 0. 0.       0. 0.  set 2
ConstantSurfaceLoad 3 loadTimeFunction 2 loadtype 3 dofs 1 3   Components 1 -1.0e6       loadOffset -1.0 
ConstantSurfaceLoad 4 loadTimeFunction 2 loadtype 3 dofs 2 1 2 Components 2  1.0e6 0.5e6 loadOffset 1.0 
#
## 13. Initial conditions
#
## 14. Time functions
ConstantFunction 1 f(t) 1.0
PiecewiseLinFunction 2 npoints 2 t 2 0. 1. f(t) 2 0. 1.
#
## 16. Sets
#
Set     1 nodes    11     1    22    43    64    85   106   127   148   169   190   211 
Set     2 nodes    11    21    42    63    84   105   126   147   168   189   210   231 
Set     3 elements    10    42    44    46    48    50    52    54    56    58    60 
Set     4 elements     1    48 
Set     5 allelements
# 
#
## 15. Xfem manager record and associated records
XfemManager 1 numberofenrichmentitems 1
delamination 1 interfacenum 1 2 csnum 1 1
DiscontinuousFunction 1
DofManList 1 list 231  1 2 3 4 5 6 7 8 9 10 11 12 13 14 15 16 17 18 19 20 21 22 23 24 25 26 27 28 29 30 31 32 33 34 35 36 37 38 39 40 41 42 43 44 45 46 47 48 49 50 51 52 53 54 55 56 57 58 59 60 61 62 63 64 65 66 67 68 69 70 71 72 73 74 75 76 77 78 79 80 81 82 83 84 85 86 87 88 89 90 91 92 93 94 95 96 97 98 99 100 101 102 103 104 105 106 107 108 109 110 111 112 113 114 115 116 117 118 119 120 121 1
#
#
#%BEGIN_CHECK% tolerance 50.
#ELEMENT tStep 1 number 48 irule 0 gp  4 keyword 1 component 3  value  9.9053e+05
#ELEMENT tStep 1 number 48 irule 0 gp 10 keyword 1 component 3  value  9.5841e+05
#ELEMENT tStep 1 number 48 irule 0 gp 16 keyword 1 component 3  value  9.1689e+05
#ELEMENT tStep 1 number 48 irule 1 gp  4 keyword 1 component 3  value  8.7836e+05
#ELEMENT tStep 1 number 48 irule 1 gp 10 keyword 1 component 3  value  7.7278e+05
#ELEMENT tStep 1 number 48 irule 1 gp 16 keyword 1 component 3  value  6.2996e+05
#ELEMENT tStep 1 number 48 irule 2 gp  4 keyword 1 component 3  value  5.4244e+05
#ELEMENT tStep 1 number 48 irule 2 gp 10 keyword 1 component 3  value  3.8689e+05
#ELEMENT tStep 1 number 48 irule 2 gp 16 keyword 1 component 3  value  2.0774e+05
#ELEMENT tStep 1 number 48 irule 3 gp  4 keyword 1 component 3  value  1.1428e+05
#ELEMENT tStep 1 number 48 irule 3 gp 10 keyword 1 component 3  value  0.1682e+05
#ELEMENT tStep 1 number 48 irule 3 gp 16 keyword 1 component 3  value -0.0970e+05
####
#ELEMENT tStep 1 number 48 irule 0 gp  4 keyword 1 component 4  value -0.2454e+05
#ELEMENT tStep 1 number 48 irule 0 gp 10 keyword 1 component 4  value -1.0240e+05
#ELEMENT tStep 1 number 48 irule 0 gp 16 keyword 1 component 4  value -3.6102e+05
#ELEMENT tStep 1 number 48 irule 1 gp  4 keyword 1 component 4  value -2.7294e+05
#ELEMENT tStep 1 number 48 irule 1 gp 10 keyword 1 component 4  value  2.4742e+05
#ELEMENT tStep 1 number 48 irule 1 gp 16 keyword 1 component 4  value  5.2571e+05
#ELEMENT tStep 1 number 48 irule 2 gp  4 keyword 1 component 4  value  6.1264e+05
#ELEMENT tStep 1 number 48 irule 2 gp 10 keyword 1 component 4  value  7.1078e+05
#ELEMENT tStep 1 number 48 irule 2 gp 16 keyword 1 component 4  value  9.2787e+05
#ELEMENT tStep 1 number 48 irule 3 gp  4 keyword 1 component 4  value  9.6505e+05
#ELEMENT tStep 1 number 48 irule 3 gp 10 keyword 1 component 4  value  7.8224e+05
#ELEMENT tStep 1 number 48 irule 3 gp 16 keyword 1 component 4  value  5.7455e+05
####
#ELEMENT tStep 1 number 48 irule 0 gp  4 keyword 1 component 5  value  0.8869e+05
#ELEMENT tStep 1 number 48 irule 0 gp 10 keyword 1 component 5  value -4.5115e+05
#ELEMENT tStep 1 number 48 irule 0 gp 16 keyword 1 component 5  value -9.1702e+05
#ELEMENT tStep 1 number 48 irule 1 gp  4 keyword 1 component 5  value -1.3726e+06
#ELEMENT tStep 1 number 48 irule 1 gp 10 keyword 1 component 5  value -2.3180e+06
#ELEMENT tStep 1 number 48 irule 1 gp 16 keyword 1 component 5  value -2.9610e+06
#ELEMENT tStep 1 number 48 irule 2 gp  4 keyword 1 component 5  value -3.5553e+06
#ELEMENT tStep 1 number 48 irule 2 gp 10 keyword 1 component 5  value -3.2819e+06
#ELEMENT tStep 1 number 48 irule 2 gp 16 keyword 1 component 5  value -2.7845e+06
#ELEMENT tStep 1 number 48 irule 3 gp  4 keyword 1 component 5  value -2.4250e+06
#ELEMENT tStep 1 number 48 irule 3 gp 10 keyword 1 component 5  value -1.4365e+06
#ELEMENT tStep 1 number 48 irule 3 gp 16 keyword 1 component 5  value  1.7216e+05
#%END_CHECK%
####
