tr2shell7XFEM.out
Cantilever beam split in two parts by delamination subjected to edge load
StaticStructural nsteps 1 lstype 0 smtype 0 rtolf 1.0e-4 manrmsteps 1  nmodules 1
errorcheck 
#vtkxml tstep_all dofman_all element_all primvars 1 1 
domain 3dDirShell 
OutputManager tstep_all dofman_all element_all
ndofman 15 nelem 4 ncrosssect 1 nmat 1 nbc 2 nic 0 nltf 1 nxfemman 1 nset 2
node      1 coords 3  0.00           0.           0.
node      2 coords 3  0.50           0.           0.
node      3 coords 3  1.00           0.           0.
node      4 coords 3  0.00  0.200000003           0.
node      5 coords 3  0.50  0.200000003           0.
node      6 coords 3  1.00  0.200000003           0.
node      7 coords 3  0.25           0.           0.
node      8 coords 3  0.50  0.100000001           0.
node      9 coords 3  0.25  0.100000001           0.
node     10 coords 3  0.25  0.200000003           0.
node     11 coords 3  0.00  0.100000001           0.
node     12 coords 3  0.75           0.           0.
node     13 coords 3  1.00  0.100000001           0.
node     14 coords 3  0.75  0.100000001           0.
node     15 coords 3  0.75  0.200000003           0.
Tr2Shell7XFEM 1 nodes 6 1 2 5  7  8  9
Tr2Shell7XFEM 2 nodes 6 5 4 1 10 11  9
Tr2Shell7XFEM 3 nodes 6 2 3 6 12 13 14 boundaryLoads  2 2 2
Tr2Shell7XFEM 4 nodes 6 6 5 2 15  8 14
layeredCS 1 nlayers 2 layermaterials 2  1 1  thicks 2  1.00000e-002 1.00000e-002 nintegrationpoints 2 set 1
IsoLE 1 d 1. E 1e9 n 0.0 tAlpha 0.
BoundaryCondition 1 loadTimeFunction 1 dofs 7 1 2 3 15 16 17 18 values 7 0. 0. 0. 0. 0. 0. 0. set 2
ConstantEdgeLoad 2 loadType 2 loadTimeFunction 1 Components 8 0. 0. 1.0 0. 0. 0. 0.0 1.0
ConstantFunction 1 f(t) 1.
Set 1 elementranges {(1 4)}
Set 2 nodes 3 1 4 11
XfemManager 1 numberofenrichmentitems 1 
#delamination 1 enrichmentdomains 1 1  enrichmentfunction 1  enrichmentdomain 1 enrichmentfront 1 delaminationxicoord 0.0  
delamination 1 interfacenum 1 1 csnum 1
DiscontinuousFunction 1 
DofManList 1 list 12  2 3 5 6 7 8 9 10 12 13 14 15
#EnrFrontDoNothing 1
#PLDoNothing 1
#%BEGIN_CHECK% tolerance 1.e-5
## Check unknowns in node 13 (mid edge node)
## with XFEM dofs scaled with 1.0e-3
#NODE tStep 1 number 13 dof 500 unknown d value 2.13801213e-002
#NODE tStep 1 number 13 dof 501 unknown d value 3.16073130e-004
#NODE tStep 1 number 13 dof 502 unknown d value 3.75487293e-000
#NODE tStep 1 number 13 dof 503 unknown d value -6.00550422e-000
#NODE tStep 1 number 13 dof 504 unknown d value -1.48540916e-002
#NODE tStep 1 number 13 dof 505 unknown d value -1.80551597e-002
#%END_CHECK%
